# Generated by roxygen2: do not edit by hand

export(GW.nc)
export(MFimage)
export(MFncimage)
export(MFcontour)
export(MT3DMS.nc)
export(cellref.loc)
export(gccs)
export(get.wtop.nc)
export(grcs)
export(mfsptime)
export(mftstime)
export(mids)
export(read.BAS)
export(read.CW5)
export(read.DIS)
export(read.GHB)
export(read.HFB)
export(read.HW5)
export(read.RCH)
export(read.RIV)
export(read.STR)
export(read.WEL)
export(readCBB.arr)
export(readHDS.arr)
export(readUCN.arr)
export(which.nc)
export(write.BAS)
export(write.DIS)
export(write.GHB)
export(write.HFB)
export(write.RIV)
export(write.STR)
export(write.WEL)
export(colorRampHex)
import(RNetCDF)
import(abind)
import(data.table)
import(plyr)
import(stringr)
importFrom(RNetCDF,att.get.nc)
importFrom(RNetCDF,var.get.nc)
importFrom(abind,abind)
importFrom(grDevices,colorRampPalette)
importFrom(graphics,image)
importFrom(plyr,splat)
importFrom(stats,approx)
importFrom(stringr,str_c)
importFrom(stringr,str_dup)
importFrom(stringr,str_extract_all)
importFrom(stringr,str_replace_all)
importFrom(stringr,str_to_lower)
importFrom(stringr,str_to_title)
