# Generated by roxygen2: do not edit by hand

export(GW.nc)
export(MFimage)
export(MFncimage)
export(MT3DMS.nc)
export(cellref.loc)
export(read.BAS)
export(read.DIS)
export(read.GHB)
export(read.WEL)
export(readCBB.arr)
export(readHDS.arr)
export(readUCN.arr)
export(write.BAS)
export(write.DIS)
export(write.GHB)
export(write.WEL)
import(RNetCDF)
import(abind)
import(data.table)
import(plyr)
import(stringr)
importFrom(grDevices,colorRampPalette)
importFrom(graphics,image)
importFrom(plyr,splat)
importFrom(stats,approx)
importFrom(stringr,str_c)
importFrom(stringr,str_dup)
importFrom(stringr,str_extract_all)
importFrom(stringr,str_replace_all)
importFrom(stringr,str_to_lower)
importFrom(stringr,str_to_title)
