# Generated by roxygen2: do not edit by hand

export(GW.nc)
export(MT3DMS.nc)
export(cellref.loc)
export(read.BAS)
export(read.DIS)
export(readCBB.arr)
export(readHDS.arr)
export(readUCN.arr)
export(write.BAS)
export(write.DIS)
import(RNetCDF)
import(abind)
import(data.table)
import(plyr)
import(stringr)
importFrom(plyr,splat)
importFrom(stats,approx)
importFrom(stringr,str_c)
importFrom(stringr,str_dup)
importFrom(stringr,str_extract_all)
importFrom(stringr,str_replace_all)
importFrom(stringr,str_to_lower)
importFrom(stringr,str_to_title)
