# MODFLOW2000 Basic Package
#MODFLOW Data Set Created by Groundwater Vistas
#   
SHOWPROGRESS 
         1         1(25I3)                      -1     IBOUND Layer   1
  0  0  0  0  0  0  0  0  0  0  0  0  0  0  0  0  0  0  0  0 -1  1  0  0  0
  0  0  0  0  0
  0  0  0  0  0  0  0  0  0  0 -1 -1 -1 -1 -1 -1 -1 -1 -1 -1  1  1  1  0  0
  0  0  0  0  0
  0  0  0  0 -1 -1 -1 -1 -1 -1  1  1  1  1  1  1  1  1  1  1  1  1  1  1  0
  0  0  0  0  0
  0  0 -1 -1  1  1  1  1  1  1  1  1  1  1  1  1  1  1  1  1  1  1  1  1  1
  0  0  0  0  0
  0 -1  1  1  1  1  1  1  1  1  1  1  1  1  1  1  1  1  1  1  1  1  1  1  1
  1  0  0  0  0
  0 -1  1  1  1  1  1  1  1  1  1  1  1  1  1  1  1  1  1  1  1  1  1  1  1
  1  1  0  0  0
 -1  1  1  1  1  1  1  1  1  1  1  1  1  1  1  1  1  1  1  1  1  1  1  1  1
  1  1  0  0  0
  1  1  1  1  1  1  1  1  1  1  1  1  1  1  1  1  1  1  1  1  1  1  1  1  1
  1  1  1  0  0
  0  1  1  1  1  1  1  1  1  1  1  1  1  1  1  1  1  1  1  1  1  1  1  1  1
  1  1  1  1  0
  0  0  1  1  1  1  1  1  1  1  1  1  1  1  1  1  1  1  1  1  1  1  1  1  1
  1  1  1  1  1
  0  0  0  0  1  1  1  1  1  1  1  1  1  1  1  1  1  1  1  1  1  1  1  1  1
  1  1  1  1  1
  0  0  0  0  0  1  1  1  1  1  1  1  1  1  1  1  1  1  1  1  1  1  1  1  1
  1  1  1  1 -1
  0  0  0  0  0  0  0  1  1  1  1  1  1  1  1  1  1  1  1  1  1  1  1  1  1
  1  1  1 -1  0
  0  0  0  0  0  0  0  0  1  1  1  1  1  1  1  1  1  1  1  1  1  1  1  1  1
  1  1  1 -1  0
  0  0  0  0  0  0  0  0  0  1  1  1  1  1  1  1  1  1  1  1  1  1  1  1  1
  1  1  1 -1  0
  0  0  0  0  0  0  0  0  0  0  1  1  1  1  1  1  1  1  1  1  1  1  1  1  1
  1  1  1 -1  0
  0  0  0  0  0  0  0  0  0  0  0  1  1  1  1  1  1  1  1  1  1  1  1  1  1
  1  1 -1  0  0
  0  0  0  0  0  0  0  0  0  0  0  0  1  1  1  1  1  1  1  1  1  1  1  1  1
 -1 -1  0  0  0
  0  0  0  0  0  0  0  0  0  0  0  0  1  1  1  1  1  1  1  1  1 -1 -1 -1 -1
  0  0  0  0  0
  0  0  0  0  0  0  0  0  0  0  0  0  0  1  1  1  1  1  1 -1 -1  0  0  0  0
  0  0  0  0  0
9.9900e+02
         1   1.00000(10e12.4)                   -1     STARTING HEADS Layer   1
  1.0000e+02  1.0000e+02  1.0000e+02  1.0000e+02  1.0000e+02  1.0000e+02  1.0000e+02  1.0000e+02  1.0000e+02  1.0000e+02
  1.0000e+02  1.0000e+02  1.0000e+02  1.0000e+02  1.0000e+02  1.0000e+02  1.0000e+02  1.0000e+02  1.0000e+02  1.0000e+02
  6.0000e+01  1.0000e+02  1.0000e+02  1.0000e+02  1.0000e+02  1.0000e+02  1.0000e+02  1.0000e+02  1.0000e+02  1.0000e+02
  1.0000e+02  1.0000e+02  1.0000e+02  1.0000e+02  1.0000e+02  1.0000e+02  1.0000e+02  1.0000e+02  1.0000e+02  1.0000e+02
  6.0000e+01  6.0000e+01  6.0000e+01  6.0000e+01  6.0000e+01  6.0000e+01  6.0000e+01  6.0000e+01  6.0000e+01  6.0000e+01
  1.0000e+02  1.0000e+02  1.0000e+02  1.0000e+02  1.0000e+02  1.0000e+02  1.0000e+02  1.0000e+02  1.0000e+02  1.0000e+02
  1.0000e+02  1.0000e+02  1.0000e+02  1.0000e+02  6.0000e+01  6.0000e+01  6.0000e+01  6.0000e+01  6.0000e+01  6.0000e+01
  1.0000e+02  1.0000e+02  1.0000e+02  1.0000e+02  1.0000e+02  1.0000e+02  1.0000e+02  1.0000e+02  1.0000e+02  1.0000e+02
  1.0000e+02  1.0000e+02  1.0000e+02  1.0000e+02  1.0000e+02  1.0000e+02  1.0000e+02  1.0000e+02  1.0000e+02  1.0000e+02
  1.0000e+02  1.0000e+02  6.0000e+01  6.0000e+01  1.0000e+02  1.0000e+02  1.0000e+02  1.0000e+02  1.0000e+02  1.0000e+02
  1.0000e+02  1.0000e+02  1.0000e+02  1.0000e+02  1.0000e+02  1.0000e+02  1.0000e+02  1.0000e+02  1.0000e+02  1.0000e+02
  1.0000e+02  1.0000e+02  1.0000e+02  1.0000e+02  1.0000e+02  1.0000e+02  1.0000e+02  1.0000e+02  1.0000e+02  1.0000e+02
  1.0000e+02  6.0000e+01  1.0000e+02  1.0000e+02  1.0000e+02  1.0000e+02  1.0000e+02  1.0000e+02  1.0000e+02  1.0000e+02
  1.0000e+02  1.0000e+02  1.0000e+02  1.0000e+02  1.0000e+02  1.0000e+02  1.0000e+02  1.0000e+02  1.0000e+02  1.0000e+02
  1.0000e+02  1.0000e+02  1.0000e+02  1.0000e+02  1.0000e+02  1.0000e+02  1.0000e+02  1.0000e+02  1.0000e+02  1.0000e+02
  1.0000e+02  6.0000e+01  1.0000e+02  1.0000e+02  1.0000e+02  1.0000e+02  1.0000e+02  1.0000e+02  1.0000e+02  1.0000e+02
  1.0000e+02  1.0000e+02  1.0000e+02  1.0000e+02  1.0000e+02  1.0000e+02  1.0000e+02  1.0000e+02  1.0000e+02  1.0000e+02
  1.0000e+02  1.0000e+02  1.0000e+02  1.0000e+02  1.0000e+02  1.0000e+02  1.0000e+02  1.0000e+02  1.0000e+02  1.0000e+02
  6.0000e+01  1.0000e+02  1.0000e+02  1.0000e+02  1.0000e+02  1.0000e+02  1.0000e+02  1.0000e+02  1.0000e+02  1.0000e+02
  1.0000e+02  1.0000e+02  1.0000e+02  1.0000e+02  1.0000e+02  1.0000e+02  1.0000e+02  1.0000e+02  1.0000e+02  1.0000e+02
  1.0000e+02  1.0000e+02  1.0000e+02  1.0000e+02  1.0000e+02  1.0000e+02  1.0000e+02  1.0000e+02  1.0000e+02  1.0000e+02
  1.0000e+02  1.0000e+02  1.0000e+02  1.0000e+02  1.0000e+02  1.0000e+02  1.0000e+02  1.0000e+02  1.0000e+02  1.0000e+02
  1.0000e+02  1.0000e+02  1.0000e+02  1.0000e+02  1.0000e+02  1.0000e+02  1.0000e+02  1.0000e+02  1.0000e+02  1.0000e+02
  1.0000e+02  1.0000e+02  1.0000e+02  1.0000e+02  1.0000e+02  1.0000e+02  1.0000e+02  1.0000e+02  1.0000e+02  1.0000e+02
  1.0000e+02  1.0000e+02  1.0000e+02  1.0000e+02  1.0000e+02  1.0000e+02  1.0000e+02  1.0000e+02  1.0000e+02  1.0000e+02
  1.0000e+02  1.0000e+02  1.0000e+02  1.0000e+02  1.0000e+02  1.0000e+02  1.0000e+02  1.0000e+02  1.0000e+02  1.0000e+02
  1.0000e+02  1.0000e+02  1.0000e+02  1.0000e+02  1.0000e+02  1.0000e+02  1.0000e+02  1.0000e+02  1.0000e+02  1.0000e+02
  1.0000e+02  1.0000e+02  1.0000e+02  1.0000e+02  1.0000e+02  1.0000e+02  1.0000e+02  1.0000e+02  1.0000e+02  1.0000e+02
  1.0000e+02  1.0000e+02  1.0000e+02  1.0000e+02  1.0000e+02  1.0000e+02  1.0000e+02  1.0000e+02  1.0000e+02  1.0000e+02
  1.0000e+02  1.0000e+02  1.0000e+02  1.0000e+02  1.0000e+02  1.0000e+02  1.0000e+02  1.0000e+02  1.0000e+02  1.0000e+02
  1.0000e+02  1.0000e+02  1.0000e+02  1.0000e+02  1.0000e+02  1.0000e+02  1.0000e+02  1.0000e+02  1.0000e+02  1.0000e+02
  1.0000e+02  1.0000e+02  1.0000e+02  1.0000e+02  1.0000e+02  1.0000e+02  1.0000e+02  1.0000e+02  1.0000e+02  1.0000e+02
  1.0000e+02  1.0000e+02  1.0000e+02  1.0000e+02  1.0000e+02  1.0000e+02  1.0000e+02  1.0000e+02  1.0000e+02  1.0000e+02
  1.0000e+02  1.0000e+02  1.0000e+02  1.0000e+02  1.0000e+02  1.0000e+02  1.0000e+02  1.0000e+02  1.0000e+02  1.0000e+02
  1.0000e+02  1.0000e+02  1.0000e+02  1.0000e+02  1.0000e+02  1.0000e+02  1.0000e+02  1.0000e+02  1.0000e+02  1.0000e+02
  1.0000e+02  1.0000e+02  1.0000e+02  1.0000e+02  1.0000e+02  1.0000e+02  1.0000e+02  1.0000e+02  1.0000e+02  5.0000e+01
  1.0000e+02  1.0000e+02  1.0000e+02  1.0000e+02  1.0000e+02  1.0000e+02  1.0000e+02  1.0000e+02  1.0000e+02  1.0000e+02
  1.0000e+02  1.0000e+02  1.0000e+02  1.0000e+02  1.0000e+02  1.0000e+02  1.0000e+02  1.0000e+02  1.0000e+02  1.0000e+02
  1.0000e+02  1.0000e+02  1.0000e+02  1.0000e+02  1.0000e+02  1.0000e+02  1.0000e+02  1.0000e+02  5.0000e+01  1.0000e+02
  1.0000e+02  1.0000e+02  1.0000e+02  1.0000e+02  1.0000e+02  1.0000e+02  1.0000e+02  1.0000e+02  1.0000e+02  1.0000e+02
  1.0000e+02  1.0000e+02  1.0000e+02  1.0000e+02  1.0000e+02  1.0000e+02  1.0000e+02  1.0000e+02  1.0000e+02  1.0000e+02
  1.0000e+02  1.0000e+02  1.0000e+02  1.0000e+02  1.0000e+02  1.0000e+02  1.0000e+02  1.0000e+02  5.0000e+01  1.0000e+02
  1.0000e+02  1.0000e+02  1.0000e+02  1.0000e+02  1.0000e+02  1.0000e+02  1.0000e+02  1.0000e+02  1.0000e+02  1.0000e+02
  1.0000e+02  1.0000e+02  1.0000e+02  1.0000e+02  1.0000e+02  1.0000e+02  1.0000e+02  1.0000e+02  1.0000e+02  1.0000e+02
  1.0000e+02  1.0000e+02  1.0000e+02  1.0000e+02  1.0000e+02  1.0000e+02  1.0000e+02  1.0000e+02  5.0000e+01  1.0000e+02
  1.0000e+02  1.0000e+02  1.0000e+02  1.0000e+02  1.0000e+02  1.0000e+02  1.0000e+02  1.0000e+02  1.0000e+02  1.0000e+02
  1.0000e+02  1.0000e+02  1.0000e+02  1.0000e+02  1.0000e+02  1.0000e+02  1.0000e+02  1.0000e+02  1.0000e+02  1.0000e+02
  1.0000e+02  1.0000e+02  1.0000e+02  1.0000e+02  1.0000e+02  1.0000e+02  1.0000e+02  1.0000e+02  5.0000e+01  1.0000e+02
  1.0000e+02  1.0000e+02  1.0000e+02  1.0000e+02  1.0000e+02  1.0000e+02  1.0000e+02  1.0000e+02  1.0000e+02  1.0000e+02
  1.0000e+02  1.0000e+02  1.0000e+02  1.0000e+02  1.0000e+02  1.0000e+02  1.0000e+02  1.0000e+02  1.0000e+02  1.0000e+02
  1.0000e+02  1.0000e+02  1.0000e+02  1.0000e+02  1.0000e+02  1.0000e+02  1.0000e+02  5.0000e+01  1.0000e+02  1.0000e+02
  1.0000e+02  1.0000e+02  1.0000e+02  1.0000e+02  1.0000e+02  1.0000e+02  1.0000e+02  1.0000e+02  1.0000e+02  1.0000e+02
  1.0000e+02  1.0000e+02  1.0000e+02  1.0000e+02  1.0000e+02  1.0000e+02  1.0000e+02  1.0000e+02  1.0000e+02  1.0000e+02
  1.0000e+02  1.0000e+02  1.0000e+02  1.0000e+02  1.0000e+02  5.0000e+01  5.0000e+01  1.0000e+02  1.0000e+02  1.0000e+02
  1.0000e+02  1.0000e+02  1.0000e+02  1.0000e+02  1.0000e+02  1.0000e+02  1.0000e+02  1.0000e+02  1.0000e+02  1.0000e+02
  1.0000e+02  1.0000e+02  1.0000e+02  1.0000e+02  1.0000e+02  1.0000e+02  1.0000e+02  1.0000e+02  1.0000e+02  1.0000e+02
  1.0000e+02  5.0000e+01  5.0000e+01  5.0000e+01  5.0000e+01  1.0000e+02  1.0000e+02  1.0000e+02  1.0000e+02  1.0000e+02
  1.0000e+02  1.0000e+02  1.0000e+02  1.0000e+02  1.0000e+02  1.0000e+02  1.0000e+02  1.0000e+02  1.0000e+02  1.0000e+02
  1.0000e+02  1.0000e+02  1.0000e+02  1.0000e+02  1.0000e+02  1.0000e+02  1.0000e+02  1.0000e+02  1.0000e+02  5.0000e+01
  5.0000e+01  1.0000e+02  1.0000e+02  1.0000e+02  1.0000e+02  1.0000e+02  1.0000e+02  1.0000e+02  1.0000e+02  1.0000e+02
