# MODFLOW2000 Well Package
PARAMETER  0  0
         6        50   AUX IFACE
         6         0               Stress Period 1
         1        12        26-10000.0000        11
         1        16        20 0.000e+00        10
         1        14        19 0.000e+00        12
         1        16        20 0.000e+00         0
         1        12        26 0.000e+00         0
         1        14        19 0.000e+00         0
         6         0               Stress Period 2
         1        12        26 0.000e+00        11
         1        16        20-10000.0000        10
         1        14        19-5000.0000        12
         1        16        20 0.000e+00         0
         1        12        26 0.000e+00         0
         1        14        19 0.000e+00         0
         6         0               Stress Period 3
         1        12        26 0.000e+00        11
         1        16        20-10000.0000        10
         1        14        19 0.000e+00        12
         1        16        20 0.000e+00         0
         1        12        26 0.000e+00         0
         1        14        19 0.000e+00         0
         6         0               Stress Period 4
         1        12        26-10000.0000        11
         1        16        20 0.000e+00        10
         1        14        19 0.000e+00        12
         1        16        20 0.000e+00         0
         1        12        26 0.000e+00         0
         1        14        19 0.000e+00         0
         6         0               Stress Period 5
         1        12        26 0.000e+00        11
         1        16        20-10000.0000        10
         1        14        19-5000.0000        12
         1        16        20 0.000e+00         0
         1        12        26 0.000e+00         0
         1        14        19 0.000e+00         0
         6         0               Stress Period 6
         1        12        26 0.000e+00        11
         1        16        20-10000.0000        10
         1        14        19 0.000e+00        12
         1        16        20 0.000e+00         0
         1        12        26 0.000e+00         0
         1        14        19 0.000e+00         0
         6         0               Stress Period 7
         1        12        26-10000.0000        11
         1        16        20 0.000e+00        10
         1        14        19 0.000e+00        12
         1        16        20 0.000e+00         0
         1        12        26 0.000e+00         0
         1        14        19 0.000e+00         0
         6         0               Stress Period 8
         1        12        26 0.000e+00        11
         1        16        20-10000.0000        10
         1        14        19-5000.0000        12
         1        16        20 0.000e+00         0
         1        12        26 0.000e+00         0
         1        14        19 0.000e+00         0
         6         0               Stress Period 9
         1        12        26 0.000e+00        11
         1        16        20-10000.0000        10
         1        14        19 0.000e+00        12
         1        16        20 0.000e+00         0
         1        12        26 0.000e+00         0
         1        14        19 0.000e+00         0
         6         0               Stress Period 10
         1        12        26-10000.0000        11
         1        16        20 0.000e+00        10
         1        14        19 0.000e+00        12
         1        16        20 0.000e+00         0
         1        12        26 0.000e+00         0
         1        14        19 0.000e+00         0
         6         0               Stress Period 11
         1        12        26 0.000e+00        11
         1        16        20-10000.0000        10
         1        14        19-5000.0000        12
         1        16        20 0.000e+00         0
         1        12        26 0.000e+00         0
         1        14        19 0.000e+00         0
         6         0               Stress Period 12
         1        12        26 0.000e+00        11
         1        16        20-10000.0000        10
         1        14        19 0.000e+00        12
         1        16        20 0.000e+00         0
         1        12        26 0.000e+00         0
         1        14        19 0.000e+00         0
         6         0               Stress Period 13
         1        12        26-10000.0000        11
         1        16        20 0.000e+00        10
         1        14        19 0.000e+00        12
         1        16        20 0.000e+00         0
         1        12        26 0.000e+00         0
         1        14        19 0.000e+00         0
         6         0               Stress Period 14
         1        12        26 0.000e+00        11
         1        16        20-10000.0000        10
         1        14        19-5000.0000        12
         1        16        20 0.000e+00         0
         1        12        26 0.000e+00         0
         1        14        19 0.000e+00         0
         6         0               Stress Period 15
         1        12        26 0.000e+00        11
         1        16        20-10000.0000        10
         1        14        19 0.000e+00        12
         1        16        20 0.000e+00         0
         1        12        26 0.000e+00         0
         1        14        19 0.000e+00         0
