# MODFLOW2000 Recharge Package
PARAMETER  0
         3        50
         1         1
        18   1.00000(10e12.4)                   -1     RECHARGE
  5.0000e-04  5.0000e-04  5.0000e-04  5.0000e-04  5.0000e-04  5.0000e-04  5.0000e-04  5.0000e-04  5.0000e-04  5.0000e-04
  5.0000e-04  5.0000e-04  5.0000e-04  5.0000e-04  5.0000e-04  5.0000e-04  5.0000e-04  5.0000e-04  5.0000e-04  5.0000e-04
  5.0000e-04  5.0000e-04  5.0000e-04  5.0000e-04  5.0000e-04  5.0000e-04  5.0000e-04  5.0000e-04  5.0000e-04  5.0000e-04
  5.0000e-04  5.0000e-04  5.0000e-04  5.0000e-04  5.0000e-04  5.0000e-04  5.0000e-04  5.0000e-04  5.0000e-04  5.0000e-04
  5.0000e-04  5.0000e-04  5.0000e-04  5.0000e-04  5.0000e-04  5.0000e-04  5.0000e-04  5.0000e-04  5.0000e-04  5.0000e-04
  5.0000e-04  5.0000e-04  5.0000e-04  5.0000e-04  5.0000e-04  5.0000e-04  5.0000e-04  5.0000e-04  5.0000e-04  5.0000e-04
  5.0000e-04  5.0000e-04  5.0000e-04  5.0000e-04  5.0000e-04  5.0000e-04  5.0000e-04  5.0000e-04  5.0000e-04  5.0000e-04
  5.0000e-04  5.0000e-04  5.0000e-04  5.0000e-04  5.0000e-04  5.0000e-04  5.0000e-04  5.0000e-04  5.0000e-04  5.0000e-04
  5.0000e-04  5.0000e-04  5.0000e-04  5.0000e-04  5.0000e-04  5.0000e-04  5.0000e-04  5.0000e-04  5.0000e-04  5.0000e-04
  5.0000e-04  5.0000e-04  5.0000e-04  5.0000e-04  5.0000e-04  5.0000e-04  5.0000e-04  5.0000e-04  5.0000e-04  5.0000e-04
  5.0000e-04  5.0000e-04  5.0000e-04  5.0000e-04  5.0000e-04  5.0000e-04  5.0000e-04  5.0000e-04  5.0000e-04  5.0000e-04
  5.0000e-04  5.0000e-04  5.0000e-04  5.0000e-04  5.0000e-04  5.0000e-04  5.0000e-04  5.0000e-04  5.0000e-04  5.0000e-04
  5.0000e-04  5.0000e-04  5.0000e-04  5.0000e-04  5.0000e-04  5.0000e-04  5.0000e-04  5.0000e-04  5.0000e-04  5.0000e-04
  5.0000e-04  5.0000e-04  5.0000e-04  5.0000e-04  5.0000e-04  5.0000e-04  5.0000e-04  5.0000e-04  5.0000e-04  5.0000e-04
  5.0000e-04  5.0000e-04  5.0000e-04  5.0000e-04  5.0000e-04  5.0000e-04  5.0000e-04  5.0000e-04  5.0000e-04  5.0000e-04
  5.0000e-04  5.0000e-04  5.0000e-04  5.0000e-04  5.0000e-04  5.0000e-04  5.0000e-04  5.0000e-04  5.0000e-04  5.0000e-04
  5.0000e-04  5.0000e-04  5.0000e-04  5.0000e-04  5.0000e-04  5.0000e-04  5.0000e-04  5.0000e-04  5.0000e-04  5.0000e-04
  5.0000e-04  5.0000e-04  5.0000e-04  5.0000e-04  5.0000e-04  5.0000e-04  5.0000e-04  5.0000e-04  5.0000e-04  5.0000e-04
  5.0000e-04  5.0000e-04  5.0000e-04  5.0000e-04  5.0000e-04  5.0000e-04  5.0000e-04  5.0000e-04  5.0000e-04  5.0000e-04
  5.0000e-04  5.0000e-04  5.0000e-04  5.0000e-04  5.0000e-04  5.0000e-04  5.0000e-04  5.0000e-04  5.0000e-04  5.0000e-04
  5.0000e-04  5.0000e-04  5.0000e-04  5.0000e-04  5.0000e-04  5.0000e-04  5.0000e-04  5.0000e-04  5.0000e-04  5.0000e-04
  5.0000e-04  5.0000e-04  5.0000e-04  5.0000e-04  5.0000e-04  5.0000e-04  5.0000e-04  5.0000e-04  5.0000e-04  5.0000e-04
  5.0000e-04  5.0000e-04  5.0000e-04  5.0000e-04  5.0000e-04  5.0000e-04  5.0000e-04  5.0000e-04  5.0000e-04  5.0000e-04
  5.0000e-04  5.0000e-04  5.0000e-04  5.0000e-04  5.0000e-04  5.0000e-04  5.0000e-04  5.0000e-04  5.0000e-04  5.0000e-04
  5.0000e-04  5.0000e-04  5.0000e-04  5.0000e-04  5.0000e-04  5.0000e-04  5.0000e-04  5.0000e-04  5.0000e-04  5.0000e-04
  5.0000e-04  5.0000e-04  5.0000e-04  5.0000e-04  5.0000e-04  5.0000e-04  5.0000e-04  5.0000e-04  5.0000e-04  5.0000e-04
  5.0000e-04  5.0000e-04  5.0000e-04  5.0000e-04  5.0000e-04  5.0000e-04  5.0000e-04  5.0000e-04  5.0000e-04  5.0000e-04
  5.0000e-04  5.0000e-04  5.0000e-04  5.0000e-04  5.0000e-04  5.0000e-04  5.0000e-04  5.0000e-04  5.0000e-04  5.0000e-04
  5.0000e-04  5.0000e-04  5.0000e-04  5.0000e-04  5.0000e-04  5.0000e-04  5.0000e-04  5.0000e-04  5.0000e-04  5.0000e-04
  5.0000e-04  5.0000e-04  5.0000e-04  5.0000e-04  5.0000e-04  5.0000e-04  5.0000e-04  5.0000e-04  5.0000e-04  5.0000e-04
  5.0000e-04  5.0000e-04  5.0000e-04  5.0000e-04  5.0000e-04  5.0000e-04  5.0000e-04  5.0000e-04  5.0000e-04  5.0000e-04
  5.0000e-04  5.0000e-04  5.0000e-04  5.0000e-04  5.0000e-04  5.0000e-04  5.0000e-04  5.0000e-04  5.0000e-04  5.0000e-04
  5.0000e-04  5.0000e-04  5.0000e-04  5.0000e-04  5.0000e-04  5.0000e-04  5.0000e-04  5.0000e-04  5.0000e-04  5.0000e-04
  5.0000e-04  5.0000e-04  5.0000e-04  5.0000e-04  5.0000e-04  5.0000e-04  5.0000e-04  5.0000e-04  5.0000e-04  5.0000e-04
  5.0000e-04  5.0000e-04  5.0000e-04  5.0000e-04  5.0000e-04  5.0000e-04  5.0000e-04  5.0000e-04  5.0000e-04  5.0000e-04
  5.0000e-04  5.0000e-04  5.0000e-04  5.0000e-04  5.0000e-04  5.0000e-04  5.0000e-04  5.0000e-04  5.0000e-04  5.0000e-04
  5.0000e-04  5.0000e-04  5.0000e-04  5.0000e-04  5.0000e-04  5.0000e-04  5.0000e-04  5.0000e-04  5.0000e-04  5.0000e-04
  5.0000e-04  5.0000e-04  5.0000e-04  5.0000e-04  5.0000e-04  5.0000e-04  5.0000e-04  5.0000e-04  5.0000e-04  5.0000e-04
  5.0000e-04  5.0000e-04  5.0000e-04  5.0000e-04  5.0000e-04  5.0000e-04  5.0000e-04  5.0000e-04  5.0000e-04  5.0000e-04
  5.0000e-04  5.0000e-04  5.0000e-04  5.0000e-04  5.0000e-04  5.0000e-04  5.0000e-04  5.0000e-04  5.0000e-04  5.0000e-04
  5.0000e-04  5.0000e-04  5.0000e-04  5.0000e-04  5.0000e-04  5.0000e-04  5.0000e-04  5.0000e-04  5.0000e-04  5.0000e-04
  5.0000e-04  5.0000e-04  5.0000e-04  5.0000e-04  5.0000e-04  5.0000e-04  5.0000e-04  5.0000e-04  5.0000e-04  5.0000e-04
  5.0000e-04  5.0000e-04  5.0000e-04  5.0000e-04  5.0000e-04  5.0000e-04  5.0000e-04  5.0000e-04  5.0000e-04  5.0000e-04
  5.0000e-04  5.0000e-04  5.0000e-04  5.0000e-04  5.0000e-04  5.0000e-04  5.0000e-04  5.0000e-04  5.0000e-04  5.0000e-04
  5.0000e-04  5.0000e-04  5.0000e-04  5.0000e-04  5.0000e-04  5.0000e-04  5.0000e-04  5.0000e-04  5.0000e-04  5.0000e-04
  5.0000e-04  5.0000e-04  5.0000e-04  5.0000e-04  5.0000e-04  5.0000e-04  5.0000e-04  5.0000e-04  5.0000e-04  5.0000e-04
  5.0000e-04  5.0000e-04  5.0000e-04  5.0000e-04  5.0000e-04  5.0000e-04  5.0000e-04  5.0000e-04  5.0000e-04  5.0000e-04
  5.0000e-04  5.0000e-04  5.0000e-04  5.0000e-04  5.0000e-04  5.0000e-04  5.0000e-04  5.0000e-04  5.0000e-04  5.0000e-04
  5.0000e-04  5.0000e-04  5.0000e-04  5.0000e-04  5.0000e-04  5.0000e-04  5.0000e-04  5.0000e-04  5.0000e-04  5.0000e-04
  5.0000e-04  5.0000e-04  5.0000e-04  5.0000e-04  5.0000e-04  5.0000e-04  5.0000e-04  5.0000e-04  5.0000e-04  5.0000e-04
  5.0000e-04  5.0000e-04  5.0000e-04  5.0000e-04  5.0000e-04  5.0000e-04  5.0000e-04  5.0000e-04  5.0000e-04  5.0000e-04
  5.0000e-04  5.0000e-04  5.0000e-04  5.0000e-04  5.0000e-04  5.0000e-04  5.0000e-04  5.0000e-04  5.0000e-04  5.0000e-04
  5.0000e-04  5.0000e-04  5.0000e-04  5.0000e-04  5.0000e-04  5.0000e-04  5.0000e-04  5.0000e-04  5.0000e-04  5.0000e-04
  5.0000e-04  5.0000e-04  5.0000e-04  5.0000e-04  5.0000e-04  5.0000e-04  5.0000e-04  5.0000e-04  5.0000e-04  5.0000e-04
  5.0000e-04  5.0000e-04  5.0000e-04  5.0000e-04  5.0000e-04  5.0000e-04  5.0000e-04  5.0000e-04  5.0000e-04  5.0000e-04
  5.0000e-04  5.0000e-04  5.0000e-04  5.0000e-04  5.0000e-04  5.0000e-04  5.0000e-04  5.0000e-04  5.0000e-04  5.0000e-04
  5.0000e-04  5.0000e-04  5.0000e-04  5.0000e-04  5.0000e-04  5.0000e-04  5.0000e-04  5.0000e-04  5.0000e-04  5.0000e-04
  5.0000e-04  5.0000e-04  5.0000e-04  5.0000e-04  5.0000e-04  5.0000e-04  5.0000e-04  5.0000e-04  5.0000e-04  5.0000e-04
  5.0000e-04  5.0000e-04  5.0000e-04  5.0000e-04  5.0000e-04  5.0000e-04  5.0000e-04  5.0000e-04  5.0000e-04  5.0000e-04
  5.0000e-04  5.0000e-04  5.0000e-04  5.0000e-04  5.0000e-04  5.0000e-04  5.0000e-04  5.0000e-04  5.0000e-04  5.0000e-04
         1         0
        18   1.00000(10e12.4)                   -1     RECHARGE
  5.0000e-04  5.0000e-04  5.0000e-04  5.0000e-04  5.0000e-04  5.0000e-04  5.0000e-04  5.0000e-04  5.0000e-04  5.0000e-04
  5.0000e-04  5.0000e-04  5.0000e-04  5.0000e-04  5.0000e-04  5.0000e-04  5.0000e-04  5.0000e-04  5.0000e-04  5.0000e-04
  5.0000e-04  5.0000e-04  5.0000e-04  5.0000e-04  5.0000e-04  5.0000e-04  5.0000e-04  5.0000e-04  5.0000e-04  5.0000e-04
  5.0000e-04  5.0000e-04  5.0000e-04  5.0000e-04  5.0000e-04  5.0000e-04  5.0000e-04  5.0000e-04  5.0000e-04  5.0000e-04
  5.0000e-04  5.0000e-04  5.0000e-04  5.0000e-04  5.0000e-04  5.0000e-04  5.0000e-04  5.0000e-04  5.0000e-04  5.0000e-04
  5.0000e-04  5.0000e-04  5.0000e-04  5.0000e-04  5.0000e-04  5.0000e-04  5.0000e-04  5.0000e-04  5.0000e-04  5.0000e-04
  5.0000e-04  5.0000e-04  5.0000e-04  5.0000e-04  5.0000e-04  5.0000e-04  5.0000e-04  5.0000e-04  5.0000e-04  5.0000e-04
  5.0000e-04  5.0000e-04  5.0000e-04  5.0000e-04  5.0000e-04  5.0000e-04  5.0000e-04  5.0000e-04  5.0000e-04  5.0000e-04
  5.0000e-04  5.0000e-04  5.0000e-04  5.0000e-04  5.0000e-04  5.0000e-04  5.0000e-04  5.0000e-04  5.0000e-04  5.0000e-04
  5.0000e-04  5.0000e-04  5.0000e-04  5.0000e-04  5.0000e-04  5.0000e-04  5.0000e-04  5.0000e-04  5.0000e-04  5.0000e-04
  5.0000e-04  5.0000e-04  5.0000e-04  5.0000e-04  5.0000e-04  5.0000e-04  5.0000e-04  5.0000e-04  5.0000e-04  5.0000e-04
  5.0000e-04  5.0000e-04  5.0000e-04  5.0000e-04  5.0000e-04  5.0000e-04  5.0000e-04  5.0000e-04  5.0000e-04  5.0000e-04
  5.0000e-04  5.0000e-04  5.0000e-04  5.0000e-04  5.0000e-04  5.0000e-04  5.0000e-04  5.0000e-04  5.0000e-04  5.0000e-04
  5.0000e-04  5.0000e-04  5.0000e-04  5.0000e-04  5.0000e-04  5.0000e-04  5.0000e-04  5.0000e-04  5.0000e-04  5.0000e-04
  5.0000e-04  5.0000e-04  5.0000e-04  5.0000e-04  5.0000e-04  5.0000e-04  5.0000e-04  5.0000e-04  5.0000e-04  5.0000e-04
  5.0000e-04  5.0000e-04  5.0000e-04  5.0000e-04  5.0000e-04  5.0000e-04  5.0000e-04  5.0000e-04  5.0000e-04  5.0000e-04
  5.0000e-04  5.0000e-04  5.0000e-04  5.0000e-04  5.0000e-04  5.0000e-04  5.0000e-04  5.0000e-04  5.0000e-04  5.0000e-04
  5.0000e-04  5.0000e-04  5.0000e-04  5.0000e-04  5.0000e-04  5.0000e-04  5.0000e-04  5.0000e-04  5.0000e-04  5.0000e-04
  5.0000e-04  5.0000e-04  5.0000e-04  5.0000e-04  5.0000e-04  5.0000e-04  5.0000e-04  5.0000e-04  5.0000e-04  5.0000e-04
  5.0000e-04  5.0000e-04  5.0000e-04  5.0000e-04  5.0000e-04  5.0000e-04  5.0000e-04  5.0000e-04  5.0000e-04  5.0000e-04
  5.0000e-04  5.0000e-04  5.0000e-04  5.0000e-04  5.0000e-04  5.0000e-04  5.0000e-04  5.0000e-04  5.0000e-04  5.0000e-04
  5.0000e-04  5.0000e-04  5.0000e-04  5.0000e-04  5.0000e-04  5.0000e-04  5.0000e-04  5.0000e-04  5.0000e-04  5.0000e-04
  5.0000e-04  5.0000e-04  5.0000e-04  5.0000e-04  5.0000e-04  5.0000e-04  5.0000e-04  5.0000e-04  5.0000e-04  5.0000e-04
  5.0000e-04  5.0000e-04  5.0000e-04  5.0000e-04  5.0000e-04  5.0000e-04  5.0000e-04  5.0000e-04  5.0000e-04  5.0000e-04
  5.0000e-04  5.0000e-04  5.0000e-04  5.0000e-04  5.0000e-04  5.0000e-04  5.0000e-04  5.0000e-04  5.0000e-04  5.0000e-04
  5.0000e-04  5.0000e-04  5.0000e-04  5.0000e-04  5.0000e-04  5.0000e-04  5.0000e-04  5.0000e-04  5.0000e-04  5.0000e-04
  5.0000e-04  5.0000e-04  5.0000e-04  5.0000e-04  5.0000e-04  5.0000e-04  5.0000e-04  5.0000e-04  5.0000e-04  5.0000e-04
  5.0000e-04  5.0000e-04  5.0000e-04  5.0000e-04  5.0000e-04  5.0000e-04  5.0000e-04  5.0000e-04  5.0000e-04  5.0000e-04
  5.0000e-04  5.0000e-04  5.0000e-04  5.0000e-04  5.0000e-04  5.0000e-04  5.0000e-04  5.0000e-04  5.0000e-04  5.0000e-04
  5.0000e-04  5.0000e-04  5.0000e-04  5.0000e-04  5.0000e-04  5.0000e-04  5.0000e-04  5.0000e-04  5.0000e-04  5.0000e-04
  5.0000e-04  5.0000e-04  5.0000e-04  5.0000e-04  5.0000e-04  5.0000e-04  5.0000e-04  5.0000e-04  5.0000e-04  5.0000e-04
  5.0000e-04  5.0000e-04  5.0000e-04  5.0000e-04  5.0000e-04  5.0000e-04  5.0000e-04  5.0000e-04  5.0000e-04  5.0000e-04
  5.0000e-04  5.0000e-04  5.0000e-04  5.0000e-04  5.0000e-04  5.0000e-04  5.0000e-04  5.0000e-04  5.0000e-04  5.0000e-04
  5.0000e-04  5.0000e-04  5.0000e-04  5.0000e-04  5.0000e-04  5.0000e-04  5.0000e-04  5.0000e-04  5.0000e-04  5.0000e-04
  5.0000e-04  5.0000e-04  5.0000e-04  5.0000e-04  5.0000e-04  5.0000e-04  5.0000e-04  5.0000e-04  5.0000e-04  5.0000e-04
  5.0000e-04  5.0000e-04  5.0000e-04  5.0000e-04  5.0000e-04  5.0000e-04  5.0000e-04  5.0000e-04  5.0000e-04  5.0000e-04
  5.0000e-04  5.0000e-04  5.0000e-04  5.0000e-04  5.0000e-04  5.0000e-04  5.0000e-04  5.0000e-04  5.0000e-04  5.0000e-04
  5.0000e-04  5.0000e-04  5.0000e-04  5.0000e-04  5.0000e-04  5.0000e-04  5.0000e-04  5.0000e-04  5.0000e-04  5.0000e-04
  5.0000e-04  5.0000e-04  5.0000e-04  5.0000e-04  5.0000e-04  5.0000e-04  5.0000e-04  5.0000e-04  5.0000e-04  5.0000e-04
  5.0000e-04  5.0000e-04  5.0000e-04  5.0000e-04  5.0000e-04  5.0000e-04  5.0000e-04  5.0000e-04  5.0000e-04  5.0000e-04
  5.0000e-04  5.0000e-04  5.0000e-04  5.0000e-04  5.0000e-04  5.0000e-04  5.0000e-04  5.0000e-04  5.0000e-04  5.0000e-04
  5.0000e-04  5.0000e-04  5.0000e-04  5.0000e-04  5.0000e-04  5.0000e-04  5.0000e-04  5.0000e-04  5.0000e-04  5.0000e-04
  5.0000e-04  5.0000e-04  5.0000e-04  5.0000e-04  5.0000e-04  5.0000e-04  5.0000e-04  5.0000e-04  5.0000e-04  5.0000e-04
  5.0000e-04  5.0000e-04  5.0000e-04  5.0000e-04  5.0000e-04  5.0000e-04  5.0000e-04  5.0000e-04  5.0000e-04  5.0000e-04
  5.0000e-04  5.0000e-04  5.0000e-04  5.0000e-04  5.0000e-04  5.0000e-04  5.0000e-04  5.0000e-04  5.0000e-04  5.0000e-04
  5.0000e-04  5.0000e-04  5.0000e-04  5.0000e-04  5.0000e-04  5.0000e-04  5.0000e-04  5.0000e-04  5.0000e-04  5.0000e-04
  5.0000e-04  5.0000e-04  5.0000e-04  5.0000e-04  5.0000e-04  5.0000e-04  5.0000e-04  5.0000e-04  5.0000e-04  5.0000e-04
  5.0000e-04  5.0000e-04  5.0000e-04  5.0000e-04  5.0000e-04  5.0000e-04  5.0000e-04  5.0000e-04  5.0000e-04  5.0000e-04
  5.0000e-04  5.0000e-04  5.0000e-04  5.0000e-04  5.0000e-04  5.0000e-04  5.0000e-04  5.0000e-04  5.0000e-04  5.0000e-04
  5.0000e-04  5.0000e-04  5.0000e-04  5.0000e-04  5.0000e-04  5.0000e-04  5.0000e-04  5.0000e-04  5.0000e-04  5.0000e-04
  5.0000e-04  5.0000e-04  5.0000e-04  5.0000e-04  5.0000e-04  5.0000e-04  5.0000e-04  5.0000e-04  5.0000e-04  5.0000e-04
  5.0000e-04  5.0000e-04  5.0000e-04  5.0000e-04  5.0000e-04  5.0000e-04  5.0000e-04  5.0000e-04  5.0000e-04  5.0000e-04
  5.0000e-04  5.0000e-04  5.0000e-04  5.0000e-04  5.0000e-04  5.0000e-04  5.0000e-04  5.0000e-04  5.0000e-04  5.0000e-04
  5.0000e-04  5.0000e-04  5.0000e-04  5.0000e-04  5.0000e-04  5.0000e-04  5.0000e-04  5.0000e-04  5.0000e-04  5.0000e-04
  5.0000e-04  5.0000e-04  5.0000e-04  5.0000e-04  5.0000e-04  5.0000e-04  5.0000e-04  5.0000e-04  5.0000e-04  5.0000e-04
  5.0000e-04  5.0000e-04  5.0000e-04  5.0000e-04  5.0000e-04  5.0000e-04  5.0000e-04  5.0000e-04  5.0000e-04  5.0000e-04
  5.0000e-04  5.0000e-04  5.0000e-04  5.0000e-04  5.0000e-04  5.0000e-04  5.0000e-04  5.0000e-04  5.0000e-04  5.0000e-04
  5.0000e-04  5.0000e-04  5.0000e-04  5.0000e-04  5.0000e-04  5.0000e-04  5.0000e-04  5.0000e-04  5.0000e-04  5.0000e-04
  5.0000e-04  5.0000e-04  5.0000e-04  5.0000e-04  5.0000e-04  5.0000e-04  5.0000e-04  5.0000e-04  5.0000e-04  5.0000e-04
  5.0000e-04  5.0000e-04  5.0000e-04  5.0000e-04  5.0000e-04  5.0000e-04  5.0000e-04  5.0000e-04  5.0000e-04  5.0000e-04
         1         0
        18   1.00000(10e12.4)                   -1     RECHARGE
  5.0000e-04  5.0000e-04  5.0000e-04  5.0000e-04  5.0000e-04  5.0000e-04  5.0000e-04  5.0000e-04  5.0000e-04  5.0000e-04
  5.0000e-04  5.0000e-04  5.0000e-04  5.0000e-04  5.0000e-04  5.0000e-04  5.0000e-04  5.0000e-04  5.0000e-04  5.0000e-04
  5.0000e-04  5.0000e-04  5.0000e-04  5.0000e-04  5.0000e-04  5.0000e-04  5.0000e-04  5.0000e-04  5.0000e-04  5.0000e-04
  5.0000e-04  5.0000e-04  5.0000e-04  5.0000e-04  5.0000e-04  5.0000e-04  5.0000e-04  5.0000e-04  5.0000e-04  5.0000e-04
  5.0000e-04  5.0000e-04  5.0000e-04  5.0000e-04  5.0000e-04  5.0000e-04  5.0000e-04  5.0000e-04  5.0000e-04  5.0000e-04
  5.0000e-04  5.0000e-04  5.0000e-04  5.0000e-04  5.0000e-04  5.0000e-04  5.0000e-04  5.0000e-04  5.0000e-04  5.0000e-04
  5.0000e-04  5.0000e-04  5.0000e-04  5.0000e-04  5.0000e-04  5.0000e-04  5.0000e-04  5.0000e-04  5.0000e-04  5.0000e-04
  5.0000e-04  5.0000e-04  5.0000e-04  5.0000e-04  5.0000e-04  5.0000e-04  5.0000e-04  5.0000e-04  5.0000e-04  5.0000e-04
  5.0000e-04  5.0000e-04  5.0000e-04  5.0000e-04  5.0000e-04  5.0000e-04  5.0000e-04  5.0000e-04  5.0000e-04  5.0000e-04
  5.0000e-04  5.0000e-04  5.0000e-04  5.0000e-04  5.0000e-04  5.0000e-04  5.0000e-04  5.0000e-04  5.0000e-04  5.0000e-04
  5.0000e-04  5.0000e-04  5.0000e-04  5.0000e-04  5.0000e-04  5.0000e-04  5.0000e-04  5.0000e-04  5.0000e-04  5.0000e-04
  5.0000e-04  5.0000e-04  5.0000e-04  5.0000e-04  5.0000e-04  5.0000e-04  5.0000e-04  5.0000e-04  5.0000e-04  5.0000e-04
  5.0000e-04  5.0000e-04  5.0000e-04  5.0000e-04  5.0000e-04  5.0000e-04  5.0000e-04  5.0000e-04  5.0000e-04  5.0000e-04
  5.0000e-04  5.0000e-04  5.0000e-04  5.0000e-04  5.0000e-04  5.0000e-04  5.0000e-04  5.0000e-04  5.0000e-04  5.0000e-04
  5.0000e-04  5.0000e-04  5.0000e-04  5.0000e-04  5.0000e-04  5.0000e-04  5.0000e-04  5.0000e-04  5.0000e-04  5.0000e-04
  5.0000e-04  5.0000e-04  5.0000e-04  5.0000e-04  5.0000e-04  5.0000e-04  5.0000e-04  5.0000e-04  5.0000e-04  5.0000e-04
  5.0000e-04  5.0000e-04  5.0000e-04  5.0000e-04  5.0000e-04  5.0000e-04  5.0000e-04  5.0000e-04  5.0000e-04  5.0000e-04
  5.0000e-04  5.0000e-04  5.0000e-04  5.0000e-04  5.0000e-04  5.0000e-04  5.0000e-04  5.0000e-04  5.0000e-04  5.0000e-04
  5.0000e-04  5.0000e-04  5.0000e-04  5.0000e-04  5.0000e-04  5.0000e-04  5.0000e-04  5.0000e-04  5.0000e-04  5.0000e-04
  5.0000e-04  5.0000e-04  5.0000e-04  5.0000e-04  5.0000e-04  5.0000e-04  5.0000e-04  5.0000e-04  5.0000e-04  5.0000e-04
  5.0000e-04  5.0000e-04  5.0000e-04  5.0000e-04  5.0000e-04  5.0000e-04  5.0000e-04  5.0000e-04  5.0000e-04  5.0000e-04
  5.0000e-04  5.0000e-04  5.0000e-04  5.0000e-04  5.0000e-04  5.0000e-04  5.0000e-04  5.0000e-04  5.0000e-04  5.0000e-04
  5.0000e-04  5.0000e-04  5.0000e-04  5.0000e-04  5.0000e-04  5.0000e-04  5.0000e-04  5.0000e-04  5.0000e-04  5.0000e-04
  5.0000e-04  5.0000e-04  5.0000e-04  5.0000e-04  5.0000e-04  5.0000e-04  5.0000e-04  5.0000e-04  5.0000e-04  5.0000e-04
  5.0000e-04  5.0000e-04  5.0000e-04  5.0000e-04  5.0000e-04  5.0000e-04  5.0000e-04  5.0000e-04  5.0000e-04  5.0000e-04
  5.0000e-04  5.0000e-04  5.0000e-04  5.0000e-04  5.0000e-04  5.0000e-04  5.0000e-04  5.0000e-04  5.0000e-04  5.0000e-04
  5.0000e-04  5.0000e-04  5.0000e-04  5.0000e-04  5.0000e-04  5.0000e-04  5.0000e-04  5.0000e-04  5.0000e-04  5.0000e-04
  5.0000e-04  5.0000e-04  5.0000e-04  5.0000e-04  5.0000e-04  5.0000e-04  5.0000e-04  5.0000e-04  5.0000e-04  5.0000e-04
  5.0000e-04  5.0000e-04  5.0000e-04  5.0000e-04  5.0000e-04  5.0000e-04  5.0000e-04  5.0000e-04  5.0000e-04  5.0000e-04
  5.0000e-04  5.0000e-04  5.0000e-04  5.0000e-04  5.0000e-04  5.0000e-04  5.0000e-04  5.0000e-04  5.0000e-04  5.0000e-04
  5.0000e-04  5.0000e-04  5.0000e-04  5.0000e-04  5.0000e-04  5.0000e-04  5.0000e-04  5.0000e-04  5.0000e-04  5.0000e-04
  5.0000e-04  5.0000e-04  5.0000e-04  5.0000e-04  5.0000e-04  5.0000e-04  5.0000e-04  5.0000e-04  5.0000e-04  5.0000e-04
  5.0000e-04  5.0000e-04  5.0000e-04  5.0000e-04  5.0000e-04  5.0000e-04  5.0000e-04  5.0000e-04  5.0000e-04  5.0000e-04
  5.0000e-04  5.0000e-04  5.0000e-04  5.0000e-04  5.0000e-04  5.0000e-04  5.0000e-04  5.0000e-04  5.0000e-04  5.0000e-04
  5.0000e-04  5.0000e-04  5.0000e-04  5.0000e-04  5.0000e-04  5.0000e-04  5.0000e-04  5.0000e-04  5.0000e-04  5.0000e-04
  5.0000e-04  5.0000e-04  5.0000e-04  5.0000e-04  5.0000e-04  5.0000e-04  5.0000e-04  5.0000e-04  5.0000e-04  5.0000e-04
  5.0000e-04  5.0000e-04  5.0000e-04  5.0000e-04  5.0000e-04  5.0000e-04  5.0000e-04  5.0000e-04  5.0000e-04  5.0000e-04
  5.0000e-04  5.0000e-04  5.0000e-04  5.0000e-04  5.0000e-04  5.0000e-04  5.0000e-04  5.0000e-04  5.0000e-04  5.0000e-04
  5.0000e-04  5.0000e-04  5.0000e-04  5.0000e-04  5.0000e-04  5.0000e-04  5.0000e-04  5.0000e-04  5.0000e-04  5.0000e-04
  5.0000e-04  5.0000e-04  5.0000e-04  5.0000e-04  5.0000e-04  5.0000e-04  5.0000e-04  5.0000e-04  5.0000e-04  5.0000e-04
  5.0000e-04  5.0000e-04  5.0000e-04  5.0000e-04  5.0000e-04  5.0000e-04  5.0000e-04  5.0000e-04  5.0000e-04  5.0000e-04
  5.0000e-04  5.0000e-04  5.0000e-04  5.0000e-04  5.0000e-04  5.0000e-04  5.0000e-04  5.0000e-04  5.0000e-04  5.0000e-04
  5.0000e-04  5.0000e-04  5.0000e-04  5.0000e-04  5.0000e-04  5.0000e-04  5.0000e-04  5.0000e-04  5.0000e-04  5.0000e-04
  5.0000e-04  5.0000e-04  5.0000e-04  5.0000e-04  5.0000e-04  5.0000e-04  5.0000e-04  5.0000e-04  5.0000e-04  5.0000e-04
  5.0000e-04  5.0000e-04  5.0000e-04  5.0000e-04  5.0000e-04  5.0000e-04  5.0000e-04  5.0000e-04  5.0000e-04  5.0000e-04
  5.0000e-04  5.0000e-04  5.0000e-04  5.0000e-04  5.0000e-04  5.0000e-04  5.0000e-04  5.0000e-04  5.0000e-04  5.0000e-04
  5.0000e-04  5.0000e-04  5.0000e-04  5.0000e-04  5.0000e-04  5.0000e-04  5.0000e-04  5.0000e-04  5.0000e-04  5.0000e-04
  5.0000e-04  5.0000e-04  5.0000e-04  5.0000e-04  5.0000e-04  5.0000e-04  5.0000e-04  5.0000e-04  5.0000e-04  5.0000e-04
  5.0000e-04  5.0000e-04  5.0000e-04  5.0000e-04  5.0000e-04  5.0000e-04  5.0000e-04  5.0000e-04  5.0000e-04  5.0000e-04
  5.0000e-04  5.0000e-04  5.0000e-04  5.0000e-04  5.0000e-04  5.0000e-04  5.0000e-04  5.0000e-04  5.0000e-04  5.0000e-04
  5.0000e-04  5.0000e-04  5.0000e-04  5.0000e-04  5.0000e-04  5.0000e-04  5.0000e-04  5.0000e-04  5.0000e-04  5.0000e-04
  5.0000e-04  5.0000e-04  5.0000e-04  5.0000e-04  5.0000e-04  5.0000e-04  5.0000e-04  5.0000e-04  5.0000e-04  5.0000e-04
  5.0000e-04  5.0000e-04  5.0000e-04  5.0000e-04  5.0000e-04  5.0000e-04  5.0000e-04  5.0000e-04  5.0000e-04  5.0000e-04
  5.0000e-04  5.0000e-04  5.0000e-04  5.0000e-04  5.0000e-04  5.0000e-04  5.0000e-04  5.0000e-04  5.0000e-04  5.0000e-04
  5.0000e-04  5.0000e-04  5.0000e-04  5.0000e-04  5.0000e-04  5.0000e-04  5.0000e-04  5.0000e-04  5.0000e-04  5.0000e-04
  5.0000e-04  5.0000e-04  5.0000e-04  5.0000e-04  5.0000e-04  5.0000e-04  5.0000e-04  5.0000e-04  5.0000e-04  5.0000e-04
  5.0000e-04  5.0000e-04  5.0000e-04  5.0000e-04  5.0000e-04  5.0000e-04  5.0000e-04  5.0000e-04  5.0000e-04  5.0000e-04
  5.0000e-04  5.0000e-04  5.0000e-04  5.0000e-04  5.0000e-04  5.0000e-04  5.0000e-04  5.0000e-04  5.0000e-04  5.0000e-04
  5.0000e-04  5.0000e-04  5.0000e-04  5.0000e-04  5.0000e-04  5.0000e-04  5.0000e-04  5.0000e-04  5.0000e-04  5.0000e-04
  5.0000e-04  5.0000e-04  5.0000e-04  5.0000e-04  5.0000e-04  5.0000e-04  5.0000e-04  5.0000e-04  5.0000e-04  5.0000e-04
         1         0
        18   1.00000(10e12.4)                   -1     RECHARGE
  5.0000e-04  5.0000e-04  5.0000e-04  5.0000e-04  5.0000e-04  5.0000e-04  5.0000e-04  5.0000e-04  5.0000e-04  5.0000e-04
  5.0000e-04  5.0000e-04  5.0000e-04  5.0000e-04  5.0000e-04  5.0000e-04  5.0000e-04  5.0000e-04  5.0000e-04  5.0000e-04
  5.0000e-04  5.0000e-04  5.0000e-04  5.0000e-04  5.0000e-04  5.0000e-04  5.0000e-04  5.0000e-04  5.0000e-04  5.0000e-04
  5.0000e-04  5.0000e-04  5.0000e-04  5.0000e-04  5.0000e-04  5.0000e-04  5.0000e-04  5.0000e-04  5.0000e-04  5.0000e-04
  5.0000e-04  5.0000e-04  5.0000e-04  5.0000e-04  5.0000e-04  5.0000e-04  5.0000e-04  5.0000e-04  5.0000e-04  5.0000e-04
  5.0000e-04  5.0000e-04  5.0000e-04  5.0000e-04  5.0000e-04  5.0000e-04  5.0000e-04  5.0000e-04  5.0000e-04  5.0000e-04
  5.0000e-04  5.0000e-04  5.0000e-04  5.0000e-04  5.0000e-04  5.0000e-04  5.0000e-04  5.0000e-04  5.0000e-04  5.0000e-04
  5.0000e-04  5.0000e-04  5.0000e-04  5.0000e-04  5.0000e-04  5.0000e-04  5.0000e-04  5.0000e-04  5.0000e-04  5.0000e-04
  5.0000e-04  5.0000e-04  5.0000e-04  5.0000e-04  5.0000e-04  5.0000e-04  5.0000e-04  5.0000e-04  5.0000e-04  5.0000e-04
  5.0000e-04  5.0000e-04  5.0000e-04  5.0000e-04  5.0000e-04  5.0000e-04  5.0000e-04  5.0000e-04  5.0000e-04  5.0000e-04
  5.0000e-04  5.0000e-04  5.0000e-04  5.0000e-04  5.0000e-04  5.0000e-04  5.0000e-04  5.0000e-04  5.0000e-04  5.0000e-04
  5.0000e-04  5.0000e-04  5.0000e-04  5.0000e-04  5.0000e-04  5.0000e-04  5.0000e-04  5.0000e-04  5.0000e-04  5.0000e-04
  5.0000e-04  5.0000e-04  5.0000e-04  5.0000e-04  5.0000e-04  5.0000e-04  5.0000e-04  5.0000e-04  5.0000e-04  5.0000e-04
  5.0000e-04  5.0000e-04  5.0000e-04  5.0000e-04  5.0000e-04  5.0000e-04  5.0000e-04  5.0000e-04  5.0000e-04  5.0000e-04
  5.0000e-04  5.0000e-04  5.0000e-04  5.0000e-04  5.0000e-04  5.0000e-04  5.0000e-04  5.0000e-04  5.0000e-04  5.0000e-04
  5.0000e-04  5.0000e-04  5.0000e-04  5.0000e-04  5.0000e-04  5.0000e-04  5.0000e-04  5.0000e-04  5.0000e-04  5.0000e-04
  5.0000e-04  5.0000e-04  5.0000e-04  5.0000e-04  5.0000e-04  5.0000e-04  5.0000e-04  5.0000e-04  5.0000e-04  5.0000e-04
  5.0000e-04  5.0000e-04  5.0000e-04  5.0000e-04  5.0000e-04  5.0000e-04  5.0000e-04  5.0000e-04  5.0000e-04  5.0000e-04
  5.0000e-04  5.0000e-04  5.0000e-04  5.0000e-04  5.0000e-04  5.0000e-04  5.0000e-04  5.0000e-04  5.0000e-04  5.0000e-04
  5.0000e-04  5.0000e-04  5.0000e-04  5.0000e-04  5.0000e-04  5.0000e-04  5.0000e-04  5.0000e-04  5.0000e-04  5.0000e-04
  5.0000e-04  5.0000e-04  5.0000e-04  5.0000e-04  5.0000e-04  5.0000e-04  5.0000e-04  5.0000e-04  5.0000e-04  5.0000e-04
  5.0000e-04  5.0000e-04  5.0000e-04  5.0000e-04  5.0000e-04  5.0000e-04  5.0000e-04  5.0000e-04  5.0000e-04  5.0000e-04
  5.0000e-04  5.0000e-04  5.0000e-04  5.0000e-04  5.0000e-04  5.0000e-04  5.0000e-04  5.0000e-04  5.0000e-04  5.0000e-04
  5.0000e-04  5.0000e-04  5.0000e-04  5.0000e-04  5.0000e-04  5.0000e-04  5.0000e-04  5.0000e-04  5.0000e-04  5.0000e-04
  5.0000e-04  5.0000e-04  5.0000e-04  5.0000e-04  5.0000e-04  5.0000e-04  5.0000e-04  5.0000e-04  5.0000e-04  5.0000e-04
  5.0000e-04  5.0000e-04  5.0000e-04  5.0000e-04  5.0000e-04  5.0000e-04  5.0000e-04  5.0000e-04  5.0000e-04  5.0000e-04
  5.0000e-04  5.0000e-04  5.0000e-04  5.0000e-04  5.0000e-04  5.0000e-04  5.0000e-04  5.0000e-04  5.0000e-04  5.0000e-04
  5.0000e-04  5.0000e-04  5.0000e-04  5.0000e-04  5.0000e-04  5.0000e-04  5.0000e-04  5.0000e-04  5.0000e-04  5.0000e-04
  5.0000e-04  5.0000e-04  5.0000e-04  5.0000e-04  5.0000e-04  5.0000e-04  5.0000e-04  5.0000e-04  5.0000e-04  5.0000e-04
  5.0000e-04  5.0000e-04  5.0000e-04  5.0000e-04  5.0000e-04  5.0000e-04  5.0000e-04  5.0000e-04  5.0000e-04  5.0000e-04
  5.0000e-04  5.0000e-04  5.0000e-04  5.0000e-04  5.0000e-04  5.0000e-04  5.0000e-04  5.0000e-04  5.0000e-04  5.0000e-04
  5.0000e-04  5.0000e-04  5.0000e-04  5.0000e-04  5.0000e-04  5.0000e-04  5.0000e-04  5.0000e-04  5.0000e-04  5.0000e-04
  5.0000e-04  5.0000e-04  5.0000e-04  5.0000e-04  5.0000e-04  5.0000e-04  5.0000e-04  5.0000e-04  5.0000e-04  5.0000e-04
  5.0000e-04  5.0000e-04  5.0000e-04  5.0000e-04  5.0000e-04  5.0000e-04  5.0000e-04  5.0000e-04  5.0000e-04  5.0000e-04
  5.0000e-04  5.0000e-04  5.0000e-04  5.0000e-04  5.0000e-04  5.0000e-04  5.0000e-04  5.0000e-04  5.0000e-04  5.0000e-04
  5.0000e-04  5.0000e-04  5.0000e-04  5.0000e-04  5.0000e-04  5.0000e-04  5.0000e-04  5.0000e-04  5.0000e-04  5.0000e-04
  5.0000e-04  5.0000e-04  5.0000e-04  5.0000e-04  5.0000e-04  5.0000e-04  5.0000e-04  5.0000e-04  5.0000e-04  5.0000e-04
  5.0000e-04  5.0000e-04  5.0000e-04  5.0000e-04  5.0000e-04  5.0000e-04  5.0000e-04  5.0000e-04  5.0000e-04  5.0000e-04
  5.0000e-04  5.0000e-04  5.0000e-04  5.0000e-04  5.0000e-04  5.0000e-04  5.0000e-04  5.0000e-04  5.0000e-04  5.0000e-04
  5.0000e-04  5.0000e-04  5.0000e-04  5.0000e-04  5.0000e-04  5.0000e-04  5.0000e-04  5.0000e-04  5.0000e-04  5.0000e-04
  5.0000e-04  5.0000e-04  5.0000e-04  5.0000e-04  5.0000e-04  5.0000e-04  5.0000e-04  5.0000e-04  5.0000e-04  5.0000e-04
  5.0000e-04  5.0000e-04  5.0000e-04  5.0000e-04  5.0000e-04  5.0000e-04  5.0000e-04  5.0000e-04  5.0000e-04  5.0000e-04
  5.0000e-04  5.0000e-04  5.0000e-04  5.0000e-04  5.0000e-04  5.0000e-04  5.0000e-04  5.0000e-04  5.0000e-04  5.0000e-04
  5.0000e-04  5.0000e-04  5.0000e-04  5.0000e-04  5.0000e-04  5.0000e-04  5.0000e-04  5.0000e-04  5.0000e-04  5.0000e-04
  5.0000e-04  5.0000e-04  5.0000e-04  5.0000e-04  5.0000e-04  5.0000e-04  5.0000e-04  5.0000e-04  5.0000e-04  5.0000e-04
  5.0000e-04  5.0000e-04  5.0000e-04  5.0000e-04  5.0000e-04  5.0000e-04  5.0000e-04  5.0000e-04  5.0000e-04  5.0000e-04
  5.0000e-04  5.0000e-04  5.0000e-04  5.0000e-04  5.0000e-04  5.0000e-04  5.0000e-04  5.0000e-04  5.0000e-04  5.0000e-04
  5.0000e-04  5.0000e-04  5.0000e-04  5.0000e-04  5.0000e-04  5.0000e-04  5.0000e-04  5.0000e-04  5.0000e-04  5.0000e-04
  5.0000e-04  5.0000e-04  5.0000e-04  5.0000e-04  5.0000e-04  5.0000e-04  5.0000e-04  5.0000e-04  5.0000e-04  5.0000e-04
  5.0000e-04  5.0000e-04  5.0000e-04  5.0000e-04  5.0000e-04  5.0000e-04  5.0000e-04  5.0000e-04  5.0000e-04  5.0000e-04
  5.0000e-04  5.0000e-04  5.0000e-04  5.0000e-04  5.0000e-04  5.0000e-04  5.0000e-04  5.0000e-04  5.0000e-04  5.0000e-04
  5.0000e-04  5.0000e-04  5.0000e-04  5.0000e-04  5.0000e-04  5.0000e-04  5.0000e-04  5.0000e-04  5.0000e-04  5.0000e-04
  5.0000e-04  5.0000e-04  5.0000e-04  5.0000e-04  5.0000e-04  5.0000e-04  5.0000e-04  5.0000e-04  5.0000e-04  5.0000e-04
  5.0000e-04  5.0000e-04  5.0000e-04  5.0000e-04  5.0000e-04  5.0000e-04  5.0000e-04  5.0000e-04  5.0000e-04  5.0000e-04
  5.0000e-04  5.0000e-04  5.0000e-04  5.0000e-04  5.0000e-04  5.0000e-04  5.0000e-04  5.0000e-04  5.0000e-04  5.0000e-04
  5.0000e-04  5.0000e-04  5.0000e-04  5.0000e-04  5.0000e-04  5.0000e-04  5.0000e-04  5.0000e-04  5.0000e-04  5.0000e-04
  5.0000e-04  5.0000e-04  5.0000e-04  5.0000e-04  5.0000e-04  5.0000e-04  5.0000e-04  5.0000e-04  5.0000e-04  5.0000e-04
  5.0000e-04  5.0000e-04  5.0000e-04  5.0000e-04  5.0000e-04  5.0000e-04  5.0000e-04  5.0000e-04  5.0000e-04  5.0000e-04
  5.0000e-04  5.0000e-04  5.0000e-04  5.0000e-04  5.0000e-04  5.0000e-04  5.0000e-04  5.0000e-04  5.0000e-04  5.0000e-04
  5.0000e-04  5.0000e-04  5.0000e-04  5.0000e-04  5.0000e-04  5.0000e-04  5.0000e-04  5.0000e-04  5.0000e-04  5.0000e-04
         1         0
        18   1.00000(10e12.4)                   -1     RECHARGE
  5.0000e-04  5.0000e-04  5.0000e-04  5.0000e-04  5.0000e-04  5.0000e-04  5.0000e-04  5.0000e-04  5.0000e-04  5.0000e-04
  5.0000e-04  5.0000e-04  5.0000e-04  5.0000e-04  5.0000e-04  5.0000e-04  5.0000e-04  5.0000e-04  5.0000e-04  5.0000e-04
  5.0000e-04  5.0000e-04  5.0000e-04  5.0000e-04  5.0000e-04  5.0000e-04  5.0000e-04  5.0000e-04  5.0000e-04  5.0000e-04