# MODFLOW2000 Constant-Head Boundary Package (CHD)
        37
        36         0
         1        12        30    50.000    50.000
         1        13        29    50.000    50.000
         1        14        29    50.000    50.000
         1        15        29    50.000    50.000
         1        16        29    50.000    50.000
         1        17        28    50.000    50.000
         1        18        26    50.000    50.000
         1        18        27    50.000    50.000
         1        19        22    50.000    50.000
         1        19        23    50.000    50.000
         1        19        24    50.000    50.000
         1        19        25    50.000    50.000
         1        20        20    50.000    50.000
         1        20        21    50.000    50.000
         1         1        21    60.000    60.000
         1         2        11    60.000    60.000
         1         2        12    60.000    60.000
         1         2        13    60.000    60.000
         1         2        14    60.000    60.000
         1         2        15    60.000    60.000
         1         2        16    60.000    60.000
         1         2        17    60.000    60.000
         1         2        18    60.000    60.000
         1         2        19    60.000    60.000
         1         2        20    60.000    60.000
         1         3         5    60.000    60.000
         1         3         6    60.000    60.000
         1         3         7    60.000    60.000
         1         3         8    60.000    60.000
         1         3         9    60.000    60.000
         1         3        10    60.000    60.000
         1         4         3    60.000    60.000
         1         4         4    60.000    60.000
         1         5         2    60.000    60.000
         1         6         2    60.000    60.000
         1         7         1    60.000    60.000
        36         0
         1        12        30    50.000    50.000
         1        13        29    50.000    50.000
         1        14        29    50.000    50.000
         1        15        29    50.000    50.000
         1        16        29    50.000    50.000
         1        17        28    50.000    50.000
         1        18        26    50.000    50.000
         1        18        27    50.000    50.000
         1        19        22    50.000    50.000
         1        19        23    50.000    50.000
         1        19        24    50.000    50.000
         1        19        25    50.000    50.000
         1        20        20    50.000    50.000
         1        20        21    50.000    50.000
         1         1        21    60.000    60.000
         1         2        11    60.000    60.000
         1         2        12    60.000    60.000
         1         2        13    60.000    60.000
         1         2        14    60.000    60.000
         1         2        15    60.000    60.000
         1         2        16    60.000    60.000
         1         2        17    60.000    60.000
         1         2        18    60.000    60.000
         1         2        19    60.000    60.000
         1         2        20    60.000    60.000
         1         3         5    60.000    60.000
         1         3         6    60.000    60.000
         1         3         7    60.000    60.000
         1         3         8    60.000    60.000
         1         3         9    60.000    60.000
         1         3        10    60.000    60.000
         1         4         3    60.000    60.000
         1         4         4    60.000    60.000
         1         5         2    60.000    60.000
         1         6         2    60.000    60.000
         1         7         1    60.000    60.000
        36         0
         1        12        30    50.000    50.000
         1        13        29    50.000    50.000
         1        14        29    50.000    50.000
         1        15        29    50.000    50.000
         1        16        29    50.000    50.000
         1        17        28    50.000    50.000
         1        18        26    50.000    50.000
         1        18        27    50.000    50.000
         1        19        22    50.000    50.000
         1        19        23    50.000    50.000
         1        19        24    50.000    50.000
         1        19        25    50.000    50.000
         1        20        20    50.000    50.000
         1        20        21    50.000    50.000
         1         1        21    60.000    60.000
         1         2        11    60.000    60.000
         1         2        12    60.000    60.000
         1         2        13    60.000    60.000
         1         2        14    60.000    60.000
         1         2        15    60.000    60.000
         1         2        16    60.000    60.000
         1         2        17    60.000    60.000
         1         2        18    60.000    60.000
         1         2        19    60.000    60.000
         1         2        20    60.000    60.000
         1         3         5    60.000    60.000
         1         3         6    60.000    60.000
         1         3         7    60.000    60.000
         1         3         8    60.000    60.000
         1         3         9    60.000    60.000
         1         3        10    60.000    60.000
         1         4         3    60.000    60.000
         1         4         4    60.000    60.000
         1         5         2    60.000    60.000
         1         6         2    60.000    60.000
         1         7         1    60.000    60.000
        36         0
         1        12        30    50.000    50.000
         1        13        29    50.000    50.000
         1        14        29    50.000    50.000
         1        15        29    50.000    50.000
         1        16        29    50.000    50.000
         1        17        28    50.000    50.000
         1        18        26    50.000    50.000
         1        18        27    50.000    50.000
         1        19        22    50.000    50.000
         1        19        23    50.000    50.000
         1        19        24    50.000    50.000
         1        19        25    50.000    50.000
         1        20        20    50.000    50.000
         1        20        21    50.000    50.000
         1         1        21    60.000    60.000
         1         2        11    60.000    60.000
         1         2        12    60.000    60.000
         1         2        13    60.000    60.000
         1         2        14    60.000    60.000
         1         2        15    60.000    60.000
         1         2        16    60.000    60.000
         1         2        17    60.000    60.000
         1         2        18    60.000    60.000
         1         2        19    60.000    60.000
         1         2        20    60.000    60.000
         1         3         5    60.000    60.000
         1         3         6    60.000    60.000
         1         3         7    60.000    60.000
         1         3         8    60.000    60.000
         1         3         9    60.000    60.000
         1         3        10    60.000    60.000
         1         4         3    60.000    60.000
         1         4         4    60.000    60.000
         1         5         2    60.000    60.000
         1         6         2    60.000    60.000
         1         7         1    60.000    60.000
        36         0
         1        12        30    50.000    50.000
         1        13        29    50.000    50.000
         1        14        29    50.000    50.000
         1        15        29    50.000    50.000
         1        16        29    50.000    50.000
         1        17        28    50.000    50.000
         1        18        26    50.000    50.000
         1        18        27    50.000    50.000
         1        19        22    50.000    50.000
         1        19        23    50.000    50.000
         1        19        24    50.000    50.000
         1        19        25    50.000    50.000
         1        20        20    50.000    50.000
         1        20        21    50.000    50.000
         1         1        21    60.000    60.000
         1         2        11    60.000    60.000
         1         2        12    60.000    60.000
         1         2        13    60.000    60.000
         1         2        14    60.000    60.000
         1         2        15    60.000    60.000
         1         2        16    60.000    60.000
         1         2        17    60.000    60.000
         1         2        18    60.000    60.000
         1         2        19    60.000    60.000
         1         2        20    60.000    60.000
         1         3         5    60.000    60.000
         1         3         6    60.000    60.000
         1         3         7    60.000    60.000
         1         3         8    60.000    60.000
         1         3         9    60.000    60.000
         1         3        10    60.000    60.000
         1         4         3    60.000    60.000
         1         4         4    60.000    60.000
         1         5         2    60.000    60.000
         1         6         2    60.000    60.000
         1         7         1    60.000    60.000
        36         0
         1        12        30    50.000    50.000
         1        13        29    50.000    50.000
         1        14        29    50.000    50.000
         1        15        29    50.000    50.000
         1        16        29    50.000    50.000
         1        17        28    50.000    50.000
         1        18        26    50.000    50.000
         1        18        27    50.000    50.000
         1        19        22    50.000    50.000
         1        19        23    50.000    50.000
         1        19        24    50.000    50.000
         1        19        25    50.000    50.000
         1        20        20    50.000    50.000
         1        20        21    50.000    50.000
         1         1        21    60.000    60.000
         1         2        11    60.000    60.000
         1         2        12    60.000    60.000
         1         2        13    60.000    60.000
         1         2        14    60.000    60.000
         1         2        15    60.000    60.000
         1         2        16    60.000    60.000
         1         2        17    60.000    60.000
         1         2        18    60.000    60.000
         1         2        19    60.000    60.000
         1         2        20    60.000    60.000
         1         3         5    60.000    60.000
         1         3         6    60.000    60.000
         1         3         7    60.000    60.000
         1         3         8    60.000    60.000
         1         3         9    60.000    60.000
         1         3        10    60.000    60.000
         1         4         3    60.000    60.000
         1         4         4    60.000    60.000
         1         5         2    60.000    60.000
         1         6         2    60.000    60.000
         1         7         1    60.000    60.000
        36         0
         1        12        30    50.000    50.000
         1        13        29    50.000    50.000
         1        14        29    50.000    50.000
         1        15        29    50.000    50.000
         1        16        29    50.000    50.000
         1        17        28    50.000    50.000
         1        18        26    50.000    50.000
         1        18        27    50.000    50.000
         1        19        22    50.000    50.000
         1        19        23    50.000    50.000
         1        19        24    50.000    50.000
         1        19        25    50.000    50.000
         1        20        20    50.000    50.000
         1        20        21    50.000    50.000
         1         1        21    60.000    60.000
         1         2        11    60.000    60.000
         1         2        12    60.000    60.000
         1         2        13    60.000    60.000
         1         2        14    60.000    60.000
         1         2        15    60.000    60.000
         1         2        16    60.000    60.000
         1         2        17    60.000    60.000
         1         2        18    60.000    60.000
         1         2        19    60.000    60.000
         1         2        20    60.000    60.000
         1         3         5    60.000    60.000
         1         3         6    60.000    60.000
         1         3         7    60.000    60.000
         1         3         8    60.000    60.000
         1         3         9    60.000    60.000
         1         3        10    60.000    60.000
         1         4         3    60.000    60.000
         1         4         4    60.000    60.000
         1         5         2    60.000    60.000
         1         6         2    60.000    60.000
         1         7         1    60.000    60.000
        36         0
         1        12        30    50.000    50.000
         1        13        29    50.000    50.000
         1        14        29    50.000    50.000
         1        15        29    50.000    50.000
         1        16        29    50.000    50.000
         1        17        28    50.000    50.000
         1        18        26    50.000    50.000
         1        18        27    50.000    50.000
         1        19        22    50.000    50.000
         1        19        23    50.000    50.000
         1        19        24    50.000    50.000
         1        19        25    50.000    50.000
         1        20        20    50.000    50.000
         1        20        21    50.000    50.000
         1         1        21    60.000    60.000
         1         2        11    60.000    60.000
         1         2        12    60.000    60.000
         1         2        13    60.000    60.000
         1         2        14    60.000    60.000
         1         2        15    60.000    60.000
         1         2        16    60.000    60.000
         1         2        17    60.000    60.000
         1         2        18    60.000    60.000
         1         2        19    60.000    60.000
         1         2        20    60.000    60.000
         1         3         5    60.000    60.000
         1         3         6    60.000    60.000
         1         3         7    60.000    60.000
         1         3         8    60.000    60.000
         1         3         9    60.000    60.000
         1         3        10    60.000    60.000
         1         4         3    60.000    60.000
         1         4         4    60.000    60.000
         1         5         2    60.000    60.000
         1         6         2    60.000    60.000
         1         7         1    60.000    60.000
        36         0
         1        12        30    50.000    50.000
         1        13        29    50.000    50.000
         1        14        29    50.000    50.000
         1        15        29    50.000    50.000
         1        16        29    50.000    50.000
         1        17        28    50.000    50.000
         1        18        26    50.000    50.000
         1        18        27    50.000    50.000
         1        19        22    50.000    50.000
         1        19        23    50.000    50.000
         1        19        24    50.000    50.000
         1        19        25    50.000    50.000
         1        20        20    50.000    50.000
         1        20        21    50.000    50.000
         1         1        21    60.000    60.000
         1         2        11    60.000    60.000
         1         2        12    60.000    60.000
         1         2        13    60.000    60.000
         1         2        14    60.000    60.000
         1         2        15    60.000    60.000
         1         2        16    60.000    60.000
         1         2        17    60.000    60.000
         1         2        18    60.000    60.000
         1         2        19    60.000    60.000
         1         2        20    60.000    60.000
         1         3         5    60.000    60.000
         1         3         6    60.000    60.000
         1         3         7    60.000    60.000
         1         3         8    60.000    60.000
         1         3         9    60.000    60.000
         1         3        10    60.000    60.000
         1         4         3    60.000    60.000
         1         4         4    60.000    60.000
         1         5         2    60.000    60.000
         1         6         2    60.000    60.000
         1         7         1    60.000    60.000
        36         0
         1        12        30    50.000    50.000
         1        13        29    50.000    50.000
         1        14        29    50.000    50.000
         1        15        29    50.000    50.000
         1        16        29    50.000    50.000
         1        17        28    50.000    50.000
         1        18        26    50.000    50.000
         1        18        27    50.000    50.000
         1        19        22    50.000    50.000
         1        19        23    50.000    50.000
         1        19        24    50.000    50.000
         1        19        25    50.000    50.000
         1        20        20    50.000    50.000
         1        20        21    50.000    50.000
         1         1        21    60.000    60.000
         1         2        11    60.000    60.000
         1         2        12    60.000    60.000
         1         2        13    60.000    60.000
         1         2        14    60.000    60.000
         1         2        15    60.000    60.000
         1         2        16    60.000    60.000
         1         2        17    60.000    60.000
         1         2        18    60.000    60.000
         1         2        19    60.000    60.000
         1         2        20    60.000    60.000
         1         3         5    60.000    60.000
         1         3         6    60.000    60.000
         1         3         7    60.000    60.000
         1         3         8    60.000    60.000
         1         3         9    60.000    60.000
         1         3        10    60.000    60.000
         1         4         3    60.000    60.000
         1         4         4    60.000    60.000
         1         5         2    60.000    60.000
         1         6         2    60.000    60.000
         1         7         1    60.000    60.000
        36         0
         1        12        30    50.000    50.000
         1        13        29    50.000    50.000
         1        14        29    50.000    50.000
         1        15        29    50.000    50.000
         1        16        29    50.000    50.000
         1        17        28    50.000    50.000
         1        18        26    50.000    50.000
         1        18        27    50.000    50.000
         1        19        22    50.000    50.000
         1        19        23    50.000    50.000
         1        19        24    50.000    50.000
         1        19        25    50.000    50.000
         1        20        20    50.000    50.000
         1        20        21    50.000    50.000
         1         1        21    60.000    60.000
         1         2        11    60.000    60.000
         1         2        12    60.000    60.000
         1         2        13    60.000    60.000
         1         2        14    60.000    60.000
         1         2        15    60.000    60.000
         1         2        16    60.000    60.000
         1         2        17    60.000    60.000
         1         2        18    60.000    60.000
         1         2        19    60.000    60.000
         1         2        20    60.000    60.000
         1         3         5    60.000    60.000
         1         3         6    60.000    60.000
         1         3         7    60.000    60.000
         1         3         8    60.000    60.000
         1         3         9    60.000    60.000
         1         3        10    60.000    60.000
         1         4         3    60.000    60.000
         1         4         4    60.000    60.000
         1         5         2    60.000    60.000
         1         6         2    60.000    60.000
         1         7         1    60.000    60.000
        36         0
         1        12        30    50.000    50.000
         1        13        29    50.000    50.000
         1        14        29    50.000    50.000
         1        15        29    50.000    50.000
         1        16        29    50.000    50.000
         1        17        28    50.000    50.000
         1        18        26    50.000    50.000
         1        18        27    50.000    50.000
         1        19        22    50.000    50.000
         1        19        23    50.000    50.000
         1        19        24    50.000    50.000
         1        19        25    50.000    50.000
         1        20        20    50.000    50.000
         1        20        21    50.000    50.000
         1         1        21    60.000    60.000
         1         2        11    60.000    60.000
         1         2        12    60.000    60.000
         1         2        13    60.000    60.000
         1         2        14    60.000    60.000
         1         2        15    60.000    60.000
         1         2        16    60.000    60.000
         1         2        17    60.000    60.000
         1         2        18    60.000    60.000
         1         2        19    60.000    60.000
         1         2        20    60.000    60.000
         1         3         5    60.000    60.000
         1         3         6    60.000    60.000
         1         3         7    60.000    60.000
         1         3         8    60.000    60.000
         1         3         9    60.000    60.000
         1         3        10    60.000    60.000
         1         4         3    60.000    60.000
         1         4         4    60.000    60.000
         1         5         2    60.000    60.000
         1         6         2    60.000    60.000
         1         7         1    60.000    60.000
        36         0
         1        12        30    50.000    50.000
         1        13        29    50.000    50.000
         1        14        29    50.000    50.000
         1        15        29    50.000    50.000
         1        16        29    50.000    50.000
         1        17        28    50.000    50.000
         1        18        26    50.000    50.000
         1        18        27    50.000    50.000
         1        19        22    50.000    50.000
         1        19        23    50.000    50.000
         1        19        24    50.000    50.000
         1        19        25    50.000    50.000
         1        20        20    50.000    50.000
         1        20        21    50.000    50.000
         1         1        21    60.000    60.000
         1         2        11    60.000    60.000
         1         2        12    60.000    60.000
         1         2        13    60.000    60.000
         1         2        14    60.000    60.000
         1         2        15    60.000    60.000
         1         2        16    60.000    60.000
         1         2        17    60.000    60.000
         1         2        18    60.000    60.000
         1         2        19    60.000    60.000
         1         2        20    60.000    60.000
         1         3         5    60.000    60.000
         1         3         6    60.000    60.000
         1         3         7    60.000    60.000
         1         3         8    60.000    60.000
         1         3         9    60.000    60.000
         1         3        10    60.000    60.000
         1         4         3    60.000    60.000
         1         4         4    60.000    60.000
         1         5         2    60.000    60.000
         1         6         2    60.000    60.000
         1         7         1    60.000    60.000
        36         0
         1        12        30    50.000    50.000
         1        13        29    50.000    50.000
         1        14        29    50.000    50.000
         1        15        29    50.000    50.000
         1        16        29    50.000    50.000
         1        17        28    50.000    50.000
         1        18        26    50.000    50.000
         1        18        27    50.000    50.000
         1        19        22    50.000    50.000
         1        19        23    50.000    50.000
         1        19        24    50.000    50.000
         1        19        25    50.000    50.000
         1        20        20    50.000    50.000
         1        20        21    50.000    50.000
         1         1        21    60.000    60.000
         1         2        11    60.000    60.000
         1         2        12    60.000    60.000
         1         2        13    60.000    60.000
         1         2        14    60.000    60.000
         1         2        15    60.000    60.000
         1         2        16    60.000    60.000
         1         2        17    60.000    60.000
         1         2        18    60.000    60.000
         1         2        19    60.000    60.000
         1         2        20    60.000    60.000
         1         3         5    60.000    60.000
         1         3         6    60.000    60.000
         1         3         7    60.000    60.000
         1         3         8    60.000    60.000
         1         3         9    60.000    60.000
         1         3        10    60.000    60.000
         1         4         3    60.000    60.000
         1         4         4    60.000    60.000
         1         5         2    60.000    60.000
         1         6         2    60.000    60.000
         1         7         1    60.000    60.000
        36         0
         1        12        30    50.000    50.000
         1        13        29    50.000    50.000
         1        14        29    50.000    50.000
         1        15        29    50.000    50.000
         1        16        29    50.000    50.000
         1        17        28    50.000    50.000
         1        18        26    50.000    50.000
         1        18        27    50.000    50.000
         1        19        22    50.000    50.000
         1        19        23    50.000    50.000
         1        19        24    50.000    50.000
         1        19        25    50.000    50.000
         1        20        20    50.000    50.000
         1        20        21    50.000    50.000
         1         1        21    60.000    60.000
         1         2        11    60.000    60.000
         1         2        12    60.000    60.000
         1         2        13    60.000    60.000
         1         2        14    60.000    60.000
         1         2        15    60.000    60.000
         1         2        16    60.000    60.000
         1         2        17    60.000    60.000
         1         2        18    60.000    60.000
         1         2        19    60.000    60.000
         1         2        20    60.000    60.000
         1         3         5    60.000    60.000
         1         3         6    60.000    60.000
         1         3         7    60.000    60.000
         1         3         8    60.000    60.000
         1         3         9    60.000    60.000
         1         3        10    60.000    60.000
         1         4         3    60.000    60.000
         1         4         4    60.000    60.000
         1         5         2    60.000    60.000
         1         6         2    60.000    60.000
         1         7         1    60.000    60.000
