# MODFLOW2000 River Package
PARAMETER  0  0
        27        50   AUX  IFACE
        27         0                      Stress Period 1
         1         5        25 51.067230 180.00000   50.0672         0
         1         5        26 51.034298 825.00000   50.0343         0
         1         6        23 51.178249 300.00000   50.1782         0
         1         6        24 51.141621 825.00000   50.1416         0
         1         6        25 51.094059 645.00000   50.0941         0
         1         7        21 51.289272 405.00000   50.2893         0
         1         7        22 51.248940 840.00000   50.2489         0
         1         7        23 51.205082 525.00000   50.2051         0
         1         8        19 51.400291 525.00000   50.4003         0
         1         8        20 51.356258 825.00000   50.3563         0
         1         8        21 51.316101 420.00000   50.3161         0
         1         9        18 51.463421 660.00000   50.4634         0
         1         9        19 51.426777 375.00000   50.4268         0
         1        10        17 51.532394 540.00000   50.5324         0
         1        10        18 51.499550 465.00000   50.4995         0
         1        11        16 51.601368 450.00000   50.6014         0
         1        11        17 51.568523 570.00000   50.5685         0
         1        12        15 51.670341 345.00000   50.6703         0
         1        12        16 51.637497 660.00000   50.6375         0
         1        13        13 51.796432 765.00000   50.7964         0
         1        13        14 51.746128 795.00000   50.7461         0
         1        13        15 51.698822 600.00000   50.6988         0
         1        14         9 51.977478 45.000000   50.9775         0
         1        14        10 51.950497 795.00000   50.9505         0
         1        14        11 51.899406 780.00000   50.8994         0
         1        14        12 51.848312 795.00000   50.8483         0
         1        14        13 51.821980 15.000000   50.8220         0
        27         0                      Stress Period 2
         1         5        25 51.067230 180.00000   50.0672         0
         1         5        26 51.034298 825.00000   50.0343         0
         1         6        23 51.178249 300.00000   50.1782         0
         1         6        24 51.141621 825.00000   50.1416         0
         1         6        25 51.094059 645.00000   50.0941         0
         1         7        21 51.289272 405.00000   50.2893         0
         1         7        22 51.248940 840.00000   50.2489         0
         1         7        23 51.205082 525.00000   50.2051         0
         1         8        19 51.400291 525.00000   50.4003         0
         1         8        20 51.356258 825.00000   50.3563         0
         1         8        21 51.316101 420.00000   50.3161         0
         1         9        18 51.463421 660.00000   50.4634         0
         1         9        19 51.426777 375.00000   50.4268         0
         1        10        17 51.532394 540.00000   50.5324         0
         1        10        18 51.499550 465.00000   50.4995         0
         1        11        16 51.601368 450.00000   50.6014         0
         1        11        17 51.568523 570.00000   50.5685         0
         1        12        15 51.670341 345.00000   50.6703         0
         1        12        16 51.637497 660.00000   50.6375         0
         1        13        13 51.796432 765.00000   50.7964         0
         1        13        14 51.746128 795.00000   50.7461         0
         1        13        15 51.698822 600.00000   50.6988         0
         1        14         9 51.977478 45.000000   50.9775         0
         1        14        10 51.950497 795.00000   50.9505         0
         1        14        11 51.899406 780.00000   50.8994         0
         1        14        12 51.848312 795.00000   50.8483         0
         1        14        13 51.821980 15.000000   50.8220         0
        27         0                      Stress Period 3
         1         5        25 51.067230 180.00000   50.0672         0
         1         5        26 51.034298 825.00000   50.0343         0
         1         6        23 51.178249 300.00000   50.1782         0
         1         6        24 51.141621 825.00000   50.1416         0
         1         6        25 51.094059 645.00000   50.0941         0
         1         7        21 51.289272 405.00000   50.2893         0
         1         7        22 51.248940 840.00000   50.2489         0
         1         7        23 51.205082 525.00000   50.2051         0
         1         8        19 51.400291 525.00000   50.4003         0
         1         8        20 51.356258 825.00000   50.3563         0
         1         8        21 51.316101 420.00000   50.3161         0
         1         9        18 51.463421 660.00000   50.4634         0
         1         9        19 51.426777 375.00000   50.4268         0
         1        10        17 51.532394 540.00000   50.5324         0
         1        10        18 51.499550 465.00000   50.4995         0
         1        11        16 51.601368 450.00000   50.6014         0
         1        11        17 51.568523 570.00000   50.5685         0
         1        12        15 51.670341 345.00000   50.6703         0
         1        12        16 51.637497 660.00000   50.6375         0
         1        13        13 51.796432 765.00000   50.7964         0
         1        13        14 51.746128 795.00000   50.7461         0
         1        13        15 51.698822 600.00000   50.6988         0
         1        14         9 51.977478 45.000000   50.9775         0
         1        14        10 51.950497 795.00000   50.9505         0
         1        14        11 51.899406 780.00000   50.8994         0
         1        14        12 51.848312 795.00000   50.8483         0
         1        14        13 51.821980 15.000000   50.8220         0
        27         0                      Stress Period 4
         1         5        25 51.067230 180.00000   50.0672         0
         1         5        26 51.034298 825.00000   50.0343         0
         1         6        23 51.178249 300.00000   50.1782         0
         1         6        24 51.141621 825.00000   50.1416         0
         1         6        25 51.094059 645.00000   50.0941         0
         1         7        21 51.289272 405.00000   50.2893         0
         1         7        22 51.248940 840.00000   50.2489         0
         1         7        23 51.205082 525.00000   50.2051         0
         1         8        19 51.400291 525.00000   50.4003         0
         1         8        20 51.356258 825.00000   50.3563         0
         1         8        21 51.316101 420.00000   50.3161         0
         1         9        18 51.463421 660.00000   50.4634         0
         1         9        19 51.426777 375.00000   50.4268         0
         1        10        17 51.532394 540.00000   50.5324         0
         1        10        18 51.499550 465.00000   50.4995         0
         1        11        16 51.601368 450.00000   50.6014         0
         1        11        17 51.568523 570.00000   50.5685         0
         1        12        15 51.670341 345.00000   50.6703         0
         1        12        16 51.637497 660.00000   50.6375         0
         1        13        13 51.796432 765.00000   50.7964         0
         1        13        14 51.746128 795.00000   50.7461         0
         1        13        15 51.698822 600.00000   50.6988         0
         1        14         9 51.977478 45.000000   50.9775         0
         1        14        10 51.950497 795.00000   50.9505         0
         1        14        11 51.899406 780.00000   50.8994         0
         1        14        12 51.848312 795.00000   50.8483         0
         1        14        13 51.821980 15.000000   50.8220         0
        27         0                      Stress Period 5
         1         5        25 51.067230 180.00000   50.0672         0
         1         5        26 51.034298 825.00000   50.0343         0
         1         6        23 51.178249 300.00000   50.1782         0
         1         6        24 51.141621 825.00000   50.1416         0
         1         6        25 51.094059 645.00000   50.0941         0
         1         7        21 51.289272 405.00000   50.2893         0
         1         7        22 51.248940 840.00000   50.2489         0
         1         7        23 51.205082 525.00000   50.2051         0
         1         8        19 51.400291 525.00000   50.4003         0
         1         8        20 51.356258 825.00000   50.3563         0
         1         8        21 51.316101 420.00000   50.3161         0
         1         9        18 51.463421 660.00000   50.4634         0
         1         9        19 51.426777 375.00000   50.4268         0
         1        10        17 51.532394 540.00000   50.5324         0
         1        10        18 51.499550 465.00000   50.4995         0
         1        11        16 51.601368 450.00000   50.6014         0
         1        11        17 51.568523 570.00000   50.5685         0
         1        12        15 51.670341 345.00000   50.6703         0
         1        12        16 51.637497 660.00000   50.6375         0
         1        13        13 51.796432 765.00000   50.7964         0
         1        13        14 51.746128 795.00000   50.7461         0
         1        13        15 51.698822 600.00000   50.6988         0
         1        14         9 51.977478 45.000000   50.9775         0
         1        14        10 51.950497 795.00000   50.9505         0
         1        14        11 51.899406 780.00000   50.8994         0
         1        14        12 51.848312 795.00000   50.8483         0
         1        14        13 51.821980 15.000000   50.8220         0
        27         0                      Stress Period 6
         1         5        25 51.067230 180.00000   50.0672         0
         1         5        26 51.034298 825.00000   50.0343         0
         1         6        23 51.178249 300.00000   50.1782         0
         1         6        24 51.141621 825.00000   50.1416         0
         1         6        25 51.094059 645.00000   50.0941         0
         1         7        21 51.289272 405.00000   50.2893         0
         1         7        22 51.248940 840.00000   50.2489         0
         1         7        23 51.205082 525.00000   50.2051         0
         1         8        19 51.400291 525.00000   50.4003         0
         1         8        20 51.356258 825.00000   50.3563         0
         1         8        21 51.316101 420.00000   50.3161         0
         1         9        18 51.463421 660.00000   50.4634         0
         1         9        19 51.426777 375.00000   50.4268         0
         1        10        17 51.532394 540.00000   50.5324         0
         1        10        18 51.499550 465.00000   50.4995         0
         1        11        16 51.601368 450.00000   50.6014         0
         1        11        17 51.568523 570.00000   50.5685         0
         1        12        15 51.670341 345.00000   50.6703         0
         1        12        16 51.637497 660.00000   50.6375         0
         1        13        13 51.796432 765.00000   50.7964         0
         1        13        14 51.746128 795.00000   50.7461         0
         1        13        15 51.698822 600.00000   50.6988         0
         1        14         9 51.977478 45.000000   50.9775         0
         1        14        10 51.950497 795.00000   50.9505         0
         1        14        11 51.899406 780.00000   50.8994         0
         1        14        12 51.848312 795.00000   50.8483         0
         1        14        13 51.821980 15.000000   50.8220         0
        27         0                      Stress Period 7
         1         5        25 51.067230 180.00000   50.0672         0
         1         5        26 51.034298 825.00000   50.0343         0
         1         6        23 51.178249 300.00000   50.1782         0
         1         6        24 51.141621 825.00000   50.1416         0
         1         6        25 51.094059 645.00000   50.0941         0
         1         7        21 51.289272 405.00000   50.2893         0
         1         7        22 51.248940 840.00000   50.2489         0
         1         7        23 51.205082 525.00000   50.2051         0
         1         8        19 51.400291 525.00000   50.4003         0
         1         8        20 51.356258 825.00000   50.3563         0
         1         8        21 51.316101 420.00000   50.3161         0
         1         9        18 51.463421 660.00000   50.4634         0
         1         9        19 51.426777 375.00000   50.4268         0
         1        10        17 51.532394 540.00000   50.5324         0
         1        10        18 51.499550 465.00000   50.4995         0
         1        11        16 51.601368 450.00000   50.6014         0
         1        11        17 51.568523 570.00000   50.5685         0
         1        12        15 51.670341 345.00000   50.6703         0
         1        12        16 51.637497 660.00000   50.6375         0
         1        13        13 51.796432 765.00000   50.7964         0
         1        13        14 51.746128 795.00000   50.7461         0
         1        13        15 51.698822 600.00000   50.6988         0
         1        14         9 51.977478 45.000000   50.9775         0
         1        14        10 51.950497 795.00000   50.9505         0
         1        14        11 51.899406 780.00000   50.8994         0
         1        14        12 51.848312 795.00000   50.8483         0
         1        14        13 51.821980 15.000000   50.8220         0
        27         0                      Stress Period 8
         1         5        25 51.067230 180.00000   50.0672         0
         1         5        26 51.034298 825.00000   50.0343         0
         1         6        23 51.178249 300.00000   50.1782         0
         1         6        24 51.141621 825.00000   50.1416         0
         1         6        25 51.094059 645.00000   50.0941         0
         1         7        21 51.289272 405.00000   50.2893         0
         1         7        22 51.248940 840.00000   50.2489         0
         1         7        23 51.205082 525.00000   50.2051         0
         1         8        19 51.400291 525.00000   50.4003         0
         1         8        20 51.356258 825.00000   50.3563         0
         1         8        21 51.316101 420.00000   50.3161         0
         1         9        18 51.463421 660.00000   50.4634         0
         1         9        19 51.426777 375.00000   50.4268         0
         1        10        17 51.532394 540.00000   50.5324         0
         1        10        18 51.499550 465.00000   50.4995         0
         1        11        16 51.601368 450.00000   50.6014         0
         1        11        17 51.568523 570.00000   50.5685         0
         1        12        15 51.670341 345.00000   50.6703         0
         1        12        16 51.637497 660.00000   50.6375         0
         1        13        13 51.796432 765.00000   50.7964         0
         1        13        14 51.746128 795.00000   50.7461         0
         1        13        15 51.698822 600.00000   50.6988         0
         1        14         9 51.977478 45.000000   50.9775         0
         1        14        10 51.950497 795.00000   50.9505         0
         1        14        11 51.899406 780.00000   50.8994         0
         1        14        12 51.848312 795.00000   50.8483         0
         1        14        13 51.821980 15.000000   50.8220         0
        27         0                      Stress Period 9
         1         5        25 51.067230 180.00000   50.0672         0
         1         5        26 51.034298 825.00000   50.0343         0
         1         6        23 51.178249 300.00000   50.1782         0
         1         6        24 51.141621 825.00000   50.1416         0
         1         6        25 51.094059 645.00000   50.0941         0
         1         7        21 51.289272 405.00000   50.2893         0
         1         7        22 51.248940 840.00000   50.2489         0
         1         7        23 51.205082 525.00000   50.2051         0
         1         8        19 51.400291 525.00000   50.4003         0
         1         8        20 51.356258 825.00000   50.3563         0
         1         8        21 51.316101 420.00000   50.3161         0
         1         9        18 51.463421 660.00000   50.4634         0
         1         9        19 51.426777 375.00000   50.4268         0
         1        10        17 51.532394 540.00000   50.5324         0
         1        10        18 51.499550 465.00000   50.4995         0
         1        11        16 51.601368 450.00000   50.6014         0
         1        11        17 51.568523 570.00000   50.5685         0
         1        12        15 51.670341 345.00000   50.6703         0
         1        12        16 51.637497 660.00000   50.6375         0
         1        13        13 51.796432 765.00000   50.7964         0
         1        13        14 51.746128 795.00000   50.7461         0
         1        13        15 51.698822 600.00000   50.6988         0
         1        14         9 51.977478 45.000000   50.9775         0
         1        14        10 51.950497 795.00000   50.9505         0
         1        14        11 51.899406 780.00000   50.8994         0
         1        14        12 51.848312 795.00000   50.8483         0
         1        14        13 51.821980 15.000000   50.8220         0
        27         0                      Stress Period 10
         1         5        25 51.067230 180.00000   50.0672         0
         1         5        26 51.034298 825.00000   50.0343         0
         1         6        23 51.178249 300.00000   50.1782         0
         1         6        24 51.141621 825.00000   50.1416         0
         1         6        25 51.094059 645.00000   50.0941         0
         1         7        21 51.289272 405.00000   50.2893         0
         1         7        22 51.248940 840.00000   50.2489         0
         1         7        23 51.205082 525.00000   50.2051         0
         1         8        19 51.400291 525.00000   50.4003         0
         1         8        20 51.356258 825.00000   50.3563         0
         1         8        21 51.316101 420.00000   50.3161         0
         1         9        18 51.463421 660.00000   50.4634         0
         1         9        19 51.426777 375.00000   50.4268         0
         1        10        17 51.532394 540.00000   50.5324         0
         1        10        18 51.499550 465.00000   50.4995         0
         1        11        16 51.601368 450.00000   50.6014         0
         1        11        17 51.568523 570.00000   50.5685         0
         1        12        15 51.670341 345.00000   50.6703         0
         1        12        16 51.637497 660.00000   50.6375         0
         1        13        13 51.796432 765.00000   50.7964         0
         1        13        14 51.746128 795.00000   50.7461         0
         1        13        15 51.698822 600.00000   50.6988         0
         1        14         9 51.977478 45.000000   50.9775         0
         1        14        10 51.950497 795.00000   50.9505         0
         1        14        11 51.899406 780.00000   50.8994         0
         1        14        12 51.848312 795.00000   50.8483         0
         1        14        13 51.821980 15.000000   50.8220         0
        27         0                      Stress Period 11
         1         5        25 51.067230 180.00000   50.0672         0
         1         5        26 51.034298 825.00000   50.0343         0
         1         6        23 51.178249 300.00000   50.1782         0
         1         6        24 51.141621 825.00000   50.1416         0
         1         6        25 51.094059 645.00000   50.0941         0
         1         7        21 51.289272 405.00000   50.2893         0
         1         7        22 51.248940 840.00000   50.2489         0
         1         7        23 51.205082 525.00000   50.2051         0
         1         8        19 51.400291 525.00000   50.4003         0
         1         8        20 51.356258 825.00000   50.3563         0
         1         8        21 51.316101 420.00000   50.3161         0
         1         9        18 51.463421 660.00000   50.4634         0
         1         9        19 51.426777 375.00000   50.4268         0
         1        10        17 51.532394 540.00000   50.5324         0
         1        10        18 51.499550 465.00000   50.4995         0
         1        11        16 51.601368 450.00000   50.6014         0
         1        11        17 51.568523 570.00000   50.5685         0
         1        12        15 51.670341 345.00000   50.6703         0
         1        12        16 51.637497 660.00000   50.6375         0
         1        13        13 51.796432 765.00000   50.7964         0
         1        13        14 51.746128 795.00000   50.7461         0
         1        13        15 51.698822 600.00000   50.6988         0
         1        14         9 51.977478 45.000000   50.9775         0
         1        14        10 51.950497 795.00000   50.9505         0
         1        14        11 51.899406 780.00000   50.8994         0
         1        14        12 51.848312 795.00000   50.8483         0
         1        14        13 51.821980 15.000000   50.8220         0
        27         0                      Stress Period 12
         1         5        25 51.067230 180.00000   50.0672         0
         1         5        26 51.034298 825.00000   50.0343         0
         1         6        23 51.178249 300.00000   50.1782         0
         1         6        24 51.141621 825.00000   50.1416         0
         1         6        25 51.094059 645.00000   50.0941         0
         1         7        21 51.289272 405.00000   50.2893         0
         1         7        22 51.248940 840.00000   50.2489         0
         1         7        23 51.205082 525.00000   50.2051         0
         1         8        19 51.400291 525.00000   50.4003         0
         1         8        20 51.356258 825.00000   50.3563         0
         1         8        21 51.316101 420.00000   50.3161         0
         1         9        18 51.463421 660.00000   50.4634         0
         1         9        19 51.426777 375.00000   50.4268         0
         1        10        17 51.532394 540.00000   50.5324         0
         1        10        18 51.499550 465.00000   50.4995         0
         1        11        16 51.601368 450.00000   50.6014         0
         1        11        17 51.568523 570.00000   50.5685         0
         1        12        15 51.670341 345.00000   50.6703         0
         1        12        16 51.637497 660.00000   50.6375         0
         1        13        13 51.796432 765.00000   50.7964         0
         1        13        14 51.746128 795.00000   50.7461         0
         1        13        15 51.698822 600.00000   50.6988         0
         1        14         9 51.977478 45.000000   50.9775         0
         1        14        10 51.950497 795.00000   50.9505         0
         1        14        11 51.899406 780.00000   50.8994         0
         1        14        12 51.848312 795.00000   50.8483         0
         1        14        13 51.821980 15.000000   50.8220         0
        27         0                      Stress Period 13
         1         5        25 51.067230 180.00000   50.0672         0
         1         5        26 51.034298 825.00000   50.0343         0
         1         6        23 51.178249 300.00000   50.1782         0
         1         6        24 51.141621 825.00000   50.1416         0
         1         6        25 51.094059 645.00000   50.0941         0
         1         7        21 51.289272 405.00000   50.2893         0
         1         7        22 51.248940 840.00000   50.2489         0
         1         7        23 51.205082 525.00000   50.2051         0
         1         8        19 51.400291 525.00000   50.4003         0
         1         8        20 51.356258 825.00000   50.3563         0
         1         8        21 51.316101 420.00000   50.3161         0
         1         9        18 51.463421 660.00000   50.4634         0
         1         9        19 51.426777 375.00000   50.4268         0
         1        10        17 51.532394 540.00000   50.5324         0
         1        10        18 51.499550 465.00000   50.4995         0
         1        11        16 51.601368 450.00000   50.6014         0
         1        11        17 51.568523 570.00000   50.5685         0
         1        12        15 51.670341 345.00000   50.6703         0
         1        12        16 51.637497 660.00000   50.6375         0
         1        13        13 51.796432 765.00000   50.7964         0
         1        13        14 51.746128 795.00000   50.7461         0
         1        13        15 51.698822 600.00000   50.6988         0
         1        14         9 51.977478 45.000000   50.9775         0
         1        14        10 51.950497 795.00000   50.9505         0
         1        14        11 51.899406 780.00000   50.8994         0
         1        14        12 51.848312 795.00000   50.8483         0
         1        14        13 51.821980 15.000000   50.8220         0
        27         0                      Stress Period 14
         1         5        25 51.067230 180.00000   50.0672         0
         1         5        26 51.034298 825.00000   50.0343         0
         1         6        23 51.178249 300.00000   50.1782         0
         1         6        24 51.141621 825.00000   50.1416         0
         1         6        25 51.094059 645.00000   50.0941         0
         1         7        21 51.289272 405.00000   50.2893         0
         1         7        22 51.248940 840.00000   50.2489         0
         1         7        23 51.205082 525.00000   50.2051         0
         1         8        19 51.400291 525.00000   50.4003         0
         1         8        20 51.356258 825.00000   50.3563         0
         1         8        21 51.316101 420.00000   50.3161         0
         1         9        18 51.463421 660.00000   50.4634         0
         1         9        19 51.426777 375.00000   50.4268         0
         1        10        17 51.532394 540.00000   50.5324         0
         1        10        18 51.499550 465.00000   50.4995         0
         1        11        16 51.601368 450.00000   50.6014         0
         1        11        17 51.568523 570.00000   50.5685         0
         1        12        15 51.670341 345.00000   50.6703         0
         1        12        16 51.637497 660.00000   50.6375         0
         1        13        13 51.796432 765.00000   50.7964         0
         1        13        14 51.746128 795.00000   50.7461         0
         1        13        15 51.698822 600.00000   50.6988         0
         1        14         9 51.977478 45.000000   50.9775         0
         1        14        10 51.950497 795.00000   50.9505         0
         1        14        11 51.899406 780.00000   50.8994         0
         1        14        12 51.848312 795.00000   50.8483         0
         1        14        13 51.821980 15.000000   50.8220         0
        27         0                      Stress Period 15
         1         5        25 51.067230 180.00000   50.0672         0
         1         5        26 51.034298 825.00000   50.0343         0
         1         6        23 51.178249 300.00000   50.1782         0
         1         6        24 51.141621 825.00000   50.1416         0
         1         6        25 51.094059 645.00000   50.0941         0
         1         7        21 51.289272 405.00000   50.2893         0
         1         7        22 51.248940 840.00000   50.2489         0
         1         7        23 51.205082 525.00000   50.2051         0
         1         8        19 51.400291 525.00000   50.4003         0
         1         8        20 51.356258 825.00000   50.3563         0
         1         8        21 51.316101 420.00000   50.3161         0
         1         9        18 51.463421 660.00000   50.4634         0
         1         9        19 51.426777 375.00000   50.4268         0
         1        10        17 51.532394 540.00000   50.5324         0
         1        10        18 51.499550 465.00000   50.4995         0
         1        11        16 51.601368 450.00000   50.6014         0
         1        11        17 51.568523 570.00000   50.5685         0
         1        12        15 51.670341 345.00000   50.6703         0
         1        12        16 51.637497 660.00000   50.6375         0
         1        13        13 51.796432 765.00000   50.7964         0
         1        13        14 51.746128 795.00000   50.7461         0
         1        13        15 51.698822 600.00000   50.6988         0
         1        14         9 51.977478 45.000000   50.9775         0
         1        14        10 51.950497 795.00000   50.9505         0
         1        14        11 51.899406 780.00000   50.8994         0
         1        14        12 51.848312 795.00000   50.8483         0
         1        14        13 51.821980 15.000000   50.8220         0
